AquaCrop 7.2 (August 2024) - Output created on (date) : 12-12-2024   at (time) : 15:28:39

   Day Month  Year   DAP Stage    Irri  IrrInt
                                    mm    days
    22     1  1996     1    -9     0.0     4
    23     1  1996     2    -9     0.0     4
    24     1  1996     3    -9     0.0     4
    25     1  1996     4    -9    15.3     4
    26     1  1996     5    -9     0.0     3
    27     1  1996     6    -9     0.0     3
    28     1  1996     7    -9    13.9     3
    29     1  1996     8    -9     0.0     3
    30     1  1996     9    -9     0.0     3
    31     1  1996    10    -9    15.9     3
     1     2  1996    11    -9     0.0     2
     2     2  1996    12    -9    14.8     2
     3     2  1996    13    -9     0.0     5
     4     2  1996    14    -9     0.0     5
     5     2  1996    15    -9     0.0     5
     6     2  1996    16    -9     0.0     5
     7     2  1996    17    -9    17.3     5
     8     2  1996    18    -9     0.0     4
     9     2  1996    19    -9     0.0     4
    10     2  1996    20    -9     0.0     4
    11     2  1996    21    -9    19.3     4
    12     2  1996    22    -9     0.0     5
    13     2  1996    23    -9     0.0     5
    14     2  1996    24    -9     0.0     5
    15     2  1996    25    -9     0.0     5
    16     2  1996    26    -9    19.7     5
    17     2  1996    27    -9     0.0     6
    18     2  1996    28    -9     0.0     6
    19     2  1996    29    -9     0.0     6
    20     2  1996    30    -9     0.0     6
    21     2  1996    31    -9     0.0     6
    22     2  1996    32    -9    23.0     6
    23     2  1996    33    -9     0.0     3
    24     2  1996    34    -9     0.0     3
    25     2  1996    35    -9    19.9     3
    26     2  1996    36    -9     0.0     6
    27     2  1996    37    -9     0.0     6
    28     2  1996    38    -9     0.0     6
    29     2  1996    39    -9     0.0     6
     1     3  1996    40    -9     0.0     6
     2     3  1996    41    -9    25.9     6
     3     3  1996    42    -9     0.0     5
     4     3  1996    43    -9     0.0     5
     5     3  1996    44    -9     0.0     5
     6     3  1996    45    -9     0.0     5
     7     3  1996    46    -9    27.2     5
     8     3  1996    47    -9     0.0     5
     9     3  1996    48    -9     0.0     5
    10     3  1996    49    -9     0.0     5
    11     3  1996    50    -9     0.0     5
    12     3  1996    51    -9    27.6     5
    13     3  1996    52    -9     0.0     6
    14     3  1996    53    -9     0.0     6
    15     3  1996    54    -9     0.0     6
    16     3  1996    55    -9     0.0     6
    17     3  1996    56    -9     0.0     6
    18     3  1996    57    -9    29.5     6
    19     3  1996    58    -9     0.0     6
    20     3  1996    59    -9     0.0     6
    21     3  1996    60    -9     0.0     6
    22     3  1996    61    -9     0.0     6
    23     3  1996    62    -9     0.0     6
    24     3  1996    63    -9    32.8     6
    25     3  1996    64    -9     0.0     5
    26     3  1996    65    -9     0.0     5
    27     3  1996    66    -9     0.0     5
    28     3  1996    67    -9     0.0     5
    29     3  1996    68    -9    29.2     5
    30     3  1996    69    -9     0.0    -9
    31     3  1996    70    -9     0.0    -9
     1     4  1996    71    -9     0.0    -9
     2     4  1996    72    -9     0.0    -9
     3     4  1996    73    -9     0.0    -9
     4     4  1996    74    -9     0.0    -9
     5     4  1996    75    -9     0.0    -9
     6     4  1996    76    -9     0.0    -9
     7     4  1996    77    -9     0.0    -9
     8     4  1996    78    -9     0.0    -9
     9     4  1996    79    -9     0.0    -9
    10     4  1996    80    -9     0.0    -9
    11     4  1996    81    -9     0.0    -9
    12     4  1996    82    -9     0.0    -9
    13     4  1996    83    -9     0.0    -9
    14     4  1996    84    -9     0.0    -9
    15     4  1996    85    -9     0.0    -9
    16     4  1996    86    -9     0.0    -9
    17     4  1996    87    -9     0.0    -9
    18     4  1996    88    -9     0.0    -9
    19     4  1996    89    -9     0.0    -9
    20     4  1996    90    -9     0.0    -9
    21     4  1996    91    -9     0.0    -9
    22     4  1996    92    -9     0.0    -9
    23     4  1996    93    -9     0.0    -9
    24     4  1996    94    -9     0.0    -9
    25     4  1996    95    -9     0.0    -9
    26     4  1996    96    -9     0.0    -9
    27     4  1996    97    -9     0.0    -9
    28     4  1996    98    -9     0.0    -9
    29     4  1996    99    -9     0.0    -9
    30     4  1996   100    -9     0.0    -9
     1     5  1996   101    -9     0.0    -9
     2     5  1996   102    -9     0.0    -9
     3     5  1996   103    -9     0.0    -9
     4     5  1996   104    -9     0.0    -9
     5     5  1996   105    -9     0.0    -9
     6     5  1996    -9    -9     0.0    -9
     7     5  1996    -9    -9     0.0    -9
     8     5  1996    -9    -9     0.0    -9
     9     5  1996    -9    -9     0.0    -9
    10     5  1996    -9    -9     0.0    -9
