AquaCrop 7.2 (August 2024) - Output created on (date) : 27-12-2024   at (time) : 21:00:28
Biomass and Yield at Multiple cuttings

    Nr   Day  Month Year   DAP Interval  Biomass    Sum(B)   Dry-Yield  Sum(Y) Fresh-Yield  Sum(Y)
                                 days     ton/ha    ton/ha    ton/ha    ton/ha    ton/ha    ton/ha
     0     9     1  1997                             0.000               0.000               0.000
  9999     5     4  1997                             8.346               2.921              58.423
