AquaCrop 7.2 (August 2024) - Output created on (date) : 23-12-2024   at (time) : 03:31:28

   Day Month  Year   DAP Stage   WC(1.20)   Rain     Irri   Surf   Infilt   RO    Drain       CR    Zgwt       Ex       E     E/Ex     Trx       Tr  Tr/Trx    ETx      ET  ET/ETx      GD       Z     StExp  StSto  StSen StSalt StWeed   CC      CCw     StTr  Kc(Tr)     Trx       Tr      TrW  Tr/Trx   WP    Biomass     HI    Y(dry)  Y(fresh)  Brelative    WPet      Bin     Bout  WC(1.20) Wr(0.91)     Z       Wr    Wr(SAT)    Wr(FC)   Wr(exp)   Wr(sto)   Wr(sen)   Wr(PWP)    SaltIn    SaltOut   SaltUp   Salt(1.20)  SaltZ     Z       ECe    ECsw   StSalt  Zgwt    ECgw       WC01       WC 2       WC 3       WC 4       WC 5       WC 6       WC 7       WC 8       WC 9       WC10       WC11       WC12      ECe01      ECe 2      ECe 3      ECe 4      ECe 5      ECe 6      ECe 7      ECe 8      ECe 9      ECe10      ECe11      ECe12     Rain       ETo      Tmin      Tavg      Tmax      CO2
                                      mm      mm       mm     mm     mm     mm       mm       mm      m        mm       mm     %        mm       mm    %        mm      mm       %  degC-day     m       %      %      %      %      %      %       %       %       -        mm       mm       mm    %     g/m2    ton/ha      %    ton/ha   ton/ha       %       kg/m3   ton/ha   ton/ha      mm       mm       m       mm        mm        mm        mm        mm        mm         mm    ton/ha    ton/ha    ton/ha    ton/ha    ton/ha     m      dS/m    dS/m      %     m      dS/m       0.05       0.15       0.25       0.35       0.45       0.55       0.65       0.75       0.85       0.95       1.05       1.15       0.05       0.15       0.25       0.35       0.45       0.55       0.65       0.75       0.85       0.95       1.05       1.15       mm        mm     degC      degC      degC       ppm
     7     2  1997     1     1     260.3     0.0      0.0    0.0    0.0    0.0      0.0      0.0   -9.90      5.1      3.7     73      0.0      0.0   100      5.1     3.7      73     17.4    0.30     -9     -9     -9      0     -9     0.0     0.0      0    -9.00      0.0      0.0      0.0   100     0.0     0.000    -9.9    0.000    0.000      -9        0.00    0.000    0.000     260.3    197.5    0.30    62.3     123.0      66.0      60.6      47.6      40.8      30.0    0.000     0.000     0.000     0.000     0.000    0.30     0.00    0.00      0   -9.90   -9.00       18.3       22.0       22.0       22.0       22.0       22.0       22.0       22.0       22.0       22.0       22.0       22.0        0.0        0.0        0.0        0.0        0.0        0.0        0.0        0.0        0.0        0.0        0.0        0.0      0.0       4.6      20.9      25.9      30.9    363.88
     8     2  1997     2     1     256.7     0.1      0.0    0.0    0.1    0.0      0.0      0.0   -9.90      5.0      3.7     73      0.0      0.0   100      5.0     3.7      73     18.1    0.30     -9     -9     -9      0     -9     0.0     0.0      0    -9.00      0.0      0.0      0.0   100     0.0     0.000    -9.9    0.000    0.000      -9        0.00    0.000    0.000     256.7    193.9    0.30    58.7     123.0      66.0      60.6      47.5      40.8      30.0    0.000     0.000     0.000     0.000     0.000    0.30     0.00    0.00      0   -9.90   -9.00       14.7       22.0       22.0       22.0       22.0       22.0       22.0       22.0       22.0       22.0       22.0       22.0        0.0        0.0        0.0        0.0        0.0        0.0        0.0        0.0        0.0        0.0        0.0        0.0      0.1       4.5      22.2      26.1      30.0    363.88
     9     2  1997     3     1     253.4     0.1      0.0    0.0    0.1    0.0      0.0      0.0   -9.90      5.3      3.5     65      0.0      0.0   100      5.3     3.5      65     19.1    0.30     -9     -9     -9      0     -9     0.0     0.0      0    -9.00      0.0      0.0      0.0   100     0.0     0.000    -9.9    0.000    0.000      -9        0.00    0.000    0.000     253.4    190.5    0.30    55.4     123.0      66.0      60.6      47.8      40.8      30.0    0.000     0.000     0.000     0.000     0.000    0.30     0.00    0.00      0   -9.90   -9.00       11.4       22.0       22.0       22.0       22.0       22.0       22.0       22.0       22.0       22.0       22.0       22.0        0.0        0.0        0.0        0.0        0.0        0.0        0.0        0.0        0.0        0.0        0.0        0.0      0.1       4.8      24.3      27.6      30.9    363.88
    10     2  1997     4     1     264.0     0.1     15.8    0.0   15.9    0.0      0.0      0.0   -9.90      5.3      5.3    100      0.0      0.0   100      5.3     5.3     100     19.0    0.30     -9     -9     -9      0     -9     0.0     0.0      0    -9.00      0.0      0.0      0.0   100     0.0     0.000    -9.9    0.000    0.000      -9        0.00    0.000    0.000     264.0    201.2    0.30    66.0     123.0      66.0      60.6      47.8      40.8      30.0    0.000     0.000     0.000     0.000     0.000    0.30     0.00    0.00      0   -9.90   -9.00       22.0       22.0       22.0       22.0       22.0       22.0       22.0       22.0       22.0       22.0       22.0       22.0        0.0        0.0        0.0        0.0        0.0        0.0        0.0        0.0        0.0        0.0        0.0        0.0      0.1       4.8      24.0      27.0      30.0    363.88
    11     2  1997     5     1     259.5     0.0      0.0    0.0    0.0    0.0      0.0      0.0   -9.90      5.3      4.5     85      0.0      0.0   100      5.3     4.5      85     18.1    0.30     -9     -9     -9      0     -9     0.0     0.0      0    -9.00      0.0      0.0      0.0   100     0.0     0.000    -9.9    0.000    0.000      -9        0.00    0.000    0.000     259.5    196.6    0.30    61.5     123.0      66.0      60.6      47.8      40.8      30.0    0.000     0.000     0.000     0.000     0.000    0.30     0.00    0.00      0   -9.90   -9.00       17.5       22.0       22.0       22.0       22.0       22.0       22.0       22.0       22.0       22.0       22.0       22.0        0.0        0.0        0.0        0.0        0.0        0.0        0.0        0.0        0.0        0.0        0.0        0.0      0.0       4.8      22.1      25.8      29.5    363.88
    12     2  1997     6     1     256.5     1.1      0.0    0.0    1.1    0.0      0.0      0.0   -9.90      5.1      4.1     80      0.0      0.0   100      5.1     4.1      80     18.9    0.30     -9     -9     -9      0     -9     0.0     0.0      0    -9.00      0.0      0.0      0.0   100     0.0     0.000    -9.9    0.000    0.000      -9        0.00    0.000    0.000     256.5    193.6    0.30    58.5     123.0      66.0      60.6      47.6      40.8      30.0    0.000     0.000     0.000     0.000     0.000    0.30     0.00    0.00      0   -9.90   -9.00       14.5       22.0       22.0       22.0       22.0       22.0       22.0       22.0       22.0       22.0       22.0       22.0        0.0        0.0        0.0        0.0        0.0        0.0        0.0        0.0        0.0        0.0        0.0        0.0      1.1       4.7      23.9      27.0      30.1    363.88
    13     2  1997     7     1     253.2     0.1      0.0    0.0    0.1    0.0      0.0      0.0   -9.90      5.4      3.4     62      0.0      0.0   100      5.4     3.4      62     19.2    0.30     -9     -9     -9      0     -9     0.0     0.0      0    -9.00      0.0      0.0      0.0   100     0.0     0.000    -9.9    0.000    0.000      -9        0.00    0.000    0.000     253.2    190.4    0.30    55.2     123.0      66.0      60.6      47.9      40.8      30.0    0.000     0.000     0.000     0.000     0.000    0.30     0.00    0.00      0   -9.90   -9.00       11.2       22.0       22.0       22.0       22.0       22.0       22.0       22.0       22.0       22.0       22.0       22.0        0.0        0.0        0.0        0.0        0.0        0.0        0.0        0.0        0.0        0.0        0.0        0.0      0.1       4.9      24.5      27.4      30.4    363.88
    14     2  1997     8     1     264.1     0.0     16.2    0.0   16.2    0.0      0.0      0.0   -9.90      5.3      5.3    100      0.0      0.0   100      5.3     5.3     100     18.4    0.30     -9     -9     -9      0     -9     0.0     0.0      0    -9.00      0.0      0.0      0.0   100     0.0     0.000    -9.9    0.000    0.000      -9        0.00    0.000    0.000     264.1    201.3    0.30    66.1     123.0      66.0      60.6      47.8      40.8      30.0    0.000     0.000     0.000     0.000     0.000    0.30     0.00    0.00      0   -9.90   -9.00       22.1       22.0       22.0       22.0       22.0       22.0       22.0       22.0       22.0       22.0       22.0       22.0        0.0        0.0        0.0        0.0        0.0        0.0        0.0        0.0        0.0        0.0        0.0        0.0      0.0       4.8      22.9      26.4      29.8    363.88
    15     2  1997     9     1     259.4     0.0      0.0    0.0    0.0    0.0      0.1      0.0   -9.90      5.4      4.6     85      0.0      0.0   100      5.4     4.6      85     18.8    0.32     -9     -9     -9      0     -9     0.0     0.0      0    -9.00      0.0      0.0      0.0   100     0.0     0.000    -9.9    0.000    0.000      -9        0.00    0.000    0.000     259.4    196.6    0.32    65.7     131.0      70.3      64.5      51.0      43.4      31.9    0.000     0.000     0.000     0.000     0.000    0.32     0.00    0.00      0   -9.90   -9.00       17.4       22.0       22.0       22.0       22.0       22.0       22.0       22.0       22.0       22.0       22.0       22.0        0.0        0.0        0.0        0.0        0.0        0.0        0.0        0.0        0.0        0.0        0.0        0.0      0.0       4.9      23.6      27.0      30.4    363.88
    16     2  1997    10     1     256.8     0.0      0.0    0.0    0.0    0.0      0.0      0.0   -9.90      5.5      2.6     48      0.0      0.0   100      5.5     2.6      48     18.1    0.34     -9     -9     -9      0     -9     0.0     0.0      0    -9.00      0.0      0.0      0.0   100     0.0     0.000    -9.9    0.000    0.000      -9        0.00    0.000    0.000     256.8    193.9    0.34    68.1     140.4      75.4      69.2      54.8      46.6      34.3    0.000     0.000     0.000     0.000     0.000    0.34     0.00    0.00      0   -9.90   -9.00       14.8       22.0       22.0       22.0       22.0       22.0       22.0       22.0       22.0       22.0       22.0       22.0        0.0        0.0        0.0        0.0        0.0        0.0        0.0        0.0        0.0        0.0        0.0        0.0      0.0       5.0      22.3      26.6      31.0    363.88
    17     2  1997    11     1     255.1     0.0      0.0    0.0    0.0    0.0      0.0      0.0   -9.90      5.1      1.7     33      0.0      0.0   100      5.1     1.7      33     17.9    0.36     -9     -9     -9      0     -9     0.0     0.0      0    -9.00      0.0      0.0      0.0   100     0.0     0.000    -9.9    0.000    0.000      -9        0.00    0.000    0.000     255.1    192.2    0.36    71.1     149.2      80.0      73.5      57.8      49.5      36.4    0.000     0.000     0.000     0.000     0.000    0.36     0.00    0.00      0   -9.90   -9.00       13.1       22.0       22.0       22.0       22.0       22.0       22.0       22.0       22.0       22.0       22.0       22.0        0.0        0.0        0.0        0.0        0.0        0.0        0.0        0.0        0.0        0.0        0.0        0.0      0.0       4.7      21.9      26.2      30.5    363.88
    18     2  1997    12     2     253.7     0.0      0.0    0.0    0.0    0.0      0.0      0.0   -9.90      5.4      1.3     25      0.1      0.1   100      5.4     1.4      26     18.0    0.38     -9      0      0      0      0     0.8     0.8      0     0.01      0.1      0.1      0.1   100    17.7     0.002    -9.9    0.000    0.000     100        0.00    0.000    0.000     253.7    190.8    0.38    74.1     157.3      84.4      77.4      61.3      52.1      38.4    0.000     0.000     0.000     0.000     0.000    0.38     0.00    0.00      0   -9.90   -9.00       11.7       22.0       22.0       22.0       22.0       22.0       22.0       22.0       22.0       22.0       22.0       22.0        0.0        0.0        0.0        0.0        0.0        0.0        0.0        0.0        0.0        0.0        0.0        0.0      0.0       4.9      22.0      26.8      31.6    363.88
    19     2  1997    13     2     251.6     0.1      0.0    0.0    0.1    0.0      0.0      0.0   -9.90      5.3      2.1     39      0.1      0.1   100      5.4     2.2      40     18.6    0.40      3      0      0      0      0     0.9     0.9      0     0.02      0.1      0.1      0.1   100    17.7     0.005    -9.9    0.000    0.000     100        0.00    0.000    0.000     251.6    188.8    0.40    76.1     165.0      88.5      81.1      64.2      54.6      40.2    0.000     0.000     0.000     0.000     0.000    0.40     0.00    0.00      0   -9.90   -9.00        9.7       21.9       22.0       22.0       22.0       22.0       22.0       22.0       22.0       22.0       22.0       22.0        0.0        0.0        0.0        0.0        0.0        0.0        0.0        0.0        0.0        0.0        0.0        0.0      0.1       4.9      23.2      27.0      30.9    363.88
    20     2  1997    14     2     250.1     0.0      0.0    0.0    0.0    0.0      0.0      0.0   -9.90      5.4      1.4     26      0.1      0.1   100      5.5     1.5      27     18.6    0.42      6      0      0      0      0     1.0     1.0      0     0.02      0.1      0.1      0.1   100    17.7     0.008    -9.9    0.000    0.000      99        0.00    0.000    0.000     250.1    187.3    0.42    78.6     172.4      92.5      84.9      67.3      57.2      42.0    0.000     0.000     0.000     0.000     0.000    0.42     0.00    0.00      0   -9.90   -9.00        8.3       21.8       22.0       22.0       22.0       22.0       22.0       22.0       22.0       22.0       22.0       22.0        0.0        0.0        0.0        0.0        0.0        0.0        0.0        0.0        0.0        0.0        0.0        0.0      0.0       5.0      23.2      27.7      32.2    363.88
    21     2  1997    15     2     249.3     1.2      0.0    0.0    1.2    0.0      0.0      0.0   -9.90      5.1      2.0     39      0.1      0.1   100      5.2     2.1      40     19.0    0.44      4      0      0      0      0     1.1     1.1      0     0.02      0.1      0.1      0.1   100    17.7     0.012    -9.9    0.000    0.000      99        0.00    0.000    0.000     249.3    186.4    0.44    81.5     179.4      96.3      87.8      69.5      59.1      43.8    0.000     0.000     0.000     0.000     0.000    0.44     0.00    0.00      0   -9.90   -9.00        7.5       21.7       22.0       22.0       22.0       22.0       22.0       22.0       22.0       22.0       22.0       22.0        0.0        0.0        0.0        0.0        0.0        0.0        0.0        0.0        0.0        0.0        0.0        0.0      1.2       4.7      24.0      27.9      31.9    363.88
    22     2  1997    16     2     248.4     0.9      0.0    0.0    0.9    0.0      0.0      0.0   -9.90      5.5      1.7     30      0.1      0.1   100      5.6     1.8      31     19.8    0.45      7      0      0      0      0     1.3     1.3      0     0.02      0.1      0.1      0.1   100    17.7     0.016    -9.9    0.000    0.000      99        0.00    0.000    0.000     248.4    185.6    0.45    84.3     186.2      99.9      92.0      72.9      61.9      45.4    0.000     0.000     0.000     0.000     0.000    0.45     0.00    0.00      0   -9.90   -9.00        6.8       21.6       22.0       22.0       22.0       22.0       22.0       22.0       22.0       22.0       22.0       22.0        0.0        0.0        0.0        0.0        0.0        0.0        0.0        0.0        0.0        0.0        0.0        0.0      0.9       5.1      25.5      29.4      33.4    363.88
    23     2  1997    17     2     247.6     0.1      0.0    0.0    0.1    0.0      0.0      0.0   -9.90      5.0      0.8     15      0.1      0.1   100      5.2     0.9      17     19.9    0.47      7      0      0      0      0     1.5     1.5      0     0.03      0.1      0.1      0.1   100    17.7     0.021    -9.9    0.000    0.000      98        0.00    0.000    0.000     247.6    184.8    0.47    87.0     192.8     103.4      94.3      74.7      63.5      47.0    0.000     0.000     0.000     0.000     0.000    0.47     0.00    0.00      0   -9.90   -9.00        6.1       21.5       22.0       22.0       22.0       22.0       22.0       22.0       22.0       22.0       22.0       22.0        0.0        0.0        0.0        0.0        0.0        0.0        0.0        0.0        0.0        0.0        0.0        0.0      0.1       4.7      25.9      28.4      30.8    363.88
    24     2  1997    18     2     246.8     0.0      0.0    0.0    0.0    0.0      0.0      0.0   -9.90      5.7      0.6     11      0.2      0.2   100      5.9     0.8      14     19.7    0.49     10      0      0      0      0     1.7     1.7      0     0.03      0.2      0.2      0.2   100    17.7     0.026    -9.9    0.000    0.000      97        0.00    0.000    0.000     246.8    184.0    0.49    89.6     199.1     106.9      98.9      78.3      66.5      48.6    0.000     0.000     0.000     0.000     0.000    0.49     0.00    0.00      0   -9.90   -9.00        5.5       21.3       22.0       22.0       22.0       22.0       22.0       22.0       22.0       22.0       22.0       22.0        0.0        0.0        0.0        0.0        0.0        0.0        0.0        0.0        0.0        0.0        0.0        0.0      0.0       5.3      25.4      28.0      30.7    363.88
    25     2  1997    19     2     246.2     1.0      0.0    0.0    1.0    0.0      0.0      0.0   -9.90      5.7      1.5     26      0.2      0.2   100      5.9     1.6      28     19.9    0.50      9      0      0      0      0     1.9     1.9      0     0.03      0.2      0.2      0.2   100    17.7     0.032    -9.9    0.000    0.000      97        0.00    0.000    0.000     246.2    183.3    0.50    92.3     205.3     110.2     101.9      80.7      68.6      50.1    0.000     0.000     0.000     0.000     0.000    0.50     0.00    0.00      0   -9.90   -9.00        5.0       21.1       22.0       22.0       22.0       22.0       22.0       22.0       22.0       22.0       22.0       22.0        0.0        0.0        0.0        0.0        0.0        0.0        0.0        0.0        0.0        0.0        0.0        0.0      1.0       5.3      25.7      28.2      30.8    363.88
    26     2  1997    20     2     245.5     0.0      0.0    0.0    0.0    0.0      0.0      0.0   -9.90      5.4      0.5      9      0.2      0.2   100      5.6     0.7      12     19.6    0.52     10      0      0      0      0     2.2     2.2      0     0.04      0.2      0.2      0.2   100    17.7     0.039    -9.9    0.000    0.000      96        0.00    0.000    0.000     245.5    182.7    0.52    94.9     211.4     113.4     104.4      82.7      70.3      51.6    0.000     0.000     0.000     0.000     0.000    0.52     0.00    0.00      0   -9.90   -9.00        5.0       20.5       22.0       22.0       22.0       22.0       22.0       22.0       22.0       22.0       22.0       22.0        0.0        0.0        0.0        0.0        0.0        0.0        0.0        0.0        0.0        0.0        0.0        0.0      0.0       5.1      25.1      28.0      30.9    363.88
    27     2  1997    21     2     244.8     0.0      0.0    0.0    0.0    0.0      0.0      0.0   -9.90      5.5      0.4      8      0.2      0.2   100      5.7     0.7      12     18.9    0.53     11      0      0      0      0     2.5     2.5      0     0.04      0.2      0.2      0.2   100    17.7     0.047    -9.9    0.000    0.000      95        0.00    0.000    0.000     244.8    182.0    0.53    97.4     217.3     116.6     107.6      85.2      72.4      53.0    0.000     0.000     0.000     0.000     0.000    0.53     0.00    0.00      0   -9.90   -9.00        5.0       19.8       22.0       22.0       22.0       22.0       22.0       22.0       22.0       22.0       22.0       22.0        0.0        0.0        0.0        0.0        0.0        0.0        0.0        0.0        0.0        0.0        0.0        0.0      0.0       5.2      23.8      27.6      31.5    363.88
    28     2  1997    22     2     244.2     0.0      0.0    0.0    0.0    0.0      0.0      0.0   -9.90      5.4      0.4      7      0.3      0.3   100      5.7     0.7      12     18.1    0.54     11      0      0      0      0     2.8     2.8      0     0.05      0.3      0.3      0.3   100    17.7     0.056    -9.9    0.000    0.000      94        0.00    0.000    0.000     244.2    181.3    0.54    99.9     223.0     119.7     110.3      87.4      74.2      54.4    0.000     0.000     0.000     0.000     0.000    0.54     0.00    0.00      0   -9.90   -9.00        5.0       19.2       22.0       22.0       22.0       22.0       22.0       22.0       22.0       22.0       22.0       22.0        0.0        0.0        0.0        0.0        0.0        0.0        0.0        0.0        0.0        0.0        0.0        0.0      0.0       5.2      22.1      27.0      31.9    363.88
     1     3  1997    23     2     243.5     0.0      0.0    0.0    0.0    0.0      0.0      0.0   -9.90      5.3      0.4      7      0.3      0.3   100      5.6     0.7      12     18.8    0.56     11      0      0      0      0     3.2     3.2      0     0.06      0.3      0.3      0.3   100    17.7     0.066    -9.9    0.000    0.000      93        0.00    0.000    0.000     243.5    180.7    0.56   102.2     228.7     122.7     113.0      89.5      76.0      55.8    0.000     0.000     0.000     0.000     0.000    0.56     0.00    0.00      0   -9.90   -9.00        5.0       18.5       22.0       22.0       22.0       22.0       22.0       22.0       22.0       22.0       22.0       22.0        0.0        0.0        0.0        0.0        0.0        0.0        0.0        0.0        0.0        0.0        0.0        0.0      0.0       5.1      23.5      27.7      31.9    363.88
     2     3  1997    24     2     242.8     0.0      0.0    0.0    0.0    0.0      0.0      0.0   -9.90      5.6      0.4      7      0.3      0.3   100      5.9     0.7      12     18.4    0.57     13      0      0      0      0     3.6     3.6      0     0.06      0.3      0.3      0.3   100    17.7     0.077    -9.9    0.000    0.000      92        0.00    0.000    0.000     242.8    179.9    0.57   104.5     234.2     125.7     116.5      92.3      78.4      57.1    0.000     0.000     0.000     0.000     0.000    0.57     0.00    0.00      0   -9.90   -9.00        5.0       17.8       22.0       22.0       22.0       22.0       22.0       22.0       22.0       22.0       22.0       22.0        0.0        0.0        0.0        0.0        0.0        0.0        0.0        0.0        0.0        0.0        0.0        0.0      0.0       5.4      22.9      27.9      33.0    363.88
     3     3  1997    25     2     242.1     0.0      0.0    0.0    0.0    0.0      0.0      0.0   -9.90      5.4      0.4      7      0.4      0.4   100      5.7     0.7      13     19.0    0.58     12      0      0      0      0     4.0     4.0      0     0.07      0.4      0.4      0.4   100    17.7     0.090    -9.9    0.000    0.000      91        0.00    0.000    0.000     242.1    179.2    0.58   106.7     239.7     128.6     118.7      94.0      79.9      58.5    0.000     0.000     0.000     0.000     0.000    0.58     0.00    0.00      0   -9.90   -9.00        5.0       17.1       22.0       22.0       22.0       22.0       22.0       22.0       22.0       22.0       22.0       22.0        0.0        0.0        0.0        0.0        0.0        0.0        0.0        0.0        0.0        0.0        0.0        0.0      0.0       5.2      24.0      27.8      31.5    363.88
     4     3  1997    26     2     241.3     0.1      0.0    0.0    0.1    0.0      0.0      0.0   -9.90      5.2      0.4      8      0.4      0.4   100      5.6     0.8      15     18.1    0.60     12      0      0      0      0     4.6     4.6      0     0.08      0.4      0.4      0.4   100    17.7     0.104    -9.9    0.000    0.000      90        0.00    0.000    0.000     241.3    178.5    0.60   108.8     245.0     131.5     121.1      95.9      81.5      59.8    0.000     0.000     0.000     0.000     0.000    0.60     0.00    0.00      0   -9.90   -9.00        5.0       16.3       22.0       22.0       22.0       22.0       22.0       22.0       22.0       22.0       22.0       22.0        0.0        0.0        0.0        0.0        0.0        0.0        0.0        0.0        0.0        0.0        0.0        0.0      0.1       5.2      22.3      26.6      30.8    363.88
     5     3  1997    27     2     240.6     0.0      0.0    0.0    0.0    0.0      0.0      0.0   -9.90      5.2      0.3      6      0.5      0.5   100      5.7     0.8      14     18.4    0.61     13      0      0      0      0     5.2     5.2      0     0.09      0.5      0.5      0.5   100    17.7     0.120    -9.9    0.000    0.000      89        0.00    0.000    0.000     240.6    177.7    0.61   110.8     250.3     134.3     123.8      98.1      83.3      61.0    0.000     0.000     0.000     0.000     0.000    0.61     0.00    0.00      0   -9.90   -9.00        5.0       15.6       22.0       22.0       22.0       22.0       22.0       22.0       22.0       22.0       22.0       22.0        0.0        0.0        0.0        0.0        0.0        0.0        0.0        0.0        0.0        0.0        0.0        0.0      0.0       5.2      22.9      27.0      31.2    363.88
     6     3  1997    28     2     239.7     0.0      0.0    0.0    0.0    0.0      0.0      0.0   -9.90      5.2      0.3      5      0.5      0.5   100      5.7     0.8      14     18.6    0.62     14      0      0      0      0     5.8     5.8      0     0.10      0.5      0.5      0.5   100    17.7     0.138    -9.9    0.000    0.000      88        0.00    0.000    0.000     239.7    176.9    0.62   112.8     255.4     137.1     126.4     100.1      85.1      62.3    0.000     0.000     0.000     0.000     0.000    0.62     0.00    0.00      0   -9.90   -9.00        5.0       14.7       22.0       22.0       22.0       22.0       22.0       22.0       22.0       22.0       22.0       22.0        0.0        0.0        0.0        0.0        0.0        0.0        0.0        0.0        0.0        0.0        0.0        0.0      0.0       5.2      23.2      27.9      32.6    363.88
     7     3  1997    29     2     238.8     0.0      0.0    0.0    0.0    0.0      0.0      0.0   -9.90      5.9      0.3      5      0.7      0.7   100      6.5     1.0      15     18.7    0.64     18      0      0      0      0     6.5     6.5      0     0.11      0.7      0.7      0.7   100    17.7     0.158    -9.9    0.000    0.000      87        0.00    0.000    0.000     238.8    175.9    0.64   114.6     260.5     139.8     131.2     103.9      88.1      63.5    0.000     0.000     0.000     0.000     0.000    0.64     0.00    0.00      0   -9.90   -9.00        5.0       13.8       22.0       22.0       22.0       22.0       22.0       22.0       22.0       22.0       22.0       22.0        0.0        0.0        0.0        0.0        0.0        0.0        0.0        0.0        0.0        0.0        0.0        0.0      0.0       6.0      23.4      28.7      34.0    363.88
     8     3  1997    30     2     264.9     0.0     31.8    0.0   31.8    0.0      0.0      0.0   -9.90      5.0      5.0    100      0.7      0.7   100      5.7     5.7     100     18.9    0.65      0      0      0      0      0     7.5     7.5      0     0.13      0.7      0.7      0.7   100    17.7     0.181    -9.9    0.000    0.000      86        0.00    0.000    0.000     264.9    202.1    0.65   143.4     265.6     142.5     131.3     104.0      88.4      64.8    0.000     0.000     0.000     0.000     0.000    0.65     0.00    0.00      0   -9.90   -9.00       31.1       13.8       22.0       22.0       22.0       22.0       22.0       22.0       22.0       22.0       22.0       22.0        0.0        0.0        0.0        0.0        0.0        0.0        0.0        0.0        0.0        0.0        0.0        0.0      0.0       5.2      23.8      28.0      32.1    363.88
     9     3  1997    31     2     259.4     0.0      0.0    0.0    0.0    0.0      0.3      0.0   -9.90      4.8      4.4     90      0.8      0.8   100      5.6     5.1      92     19.1    0.66      0      0      0      0      0     8.6     8.6      0     0.15      0.8      0.8      0.8   100    17.7     0.208    -9.9    0.000    0.000      85        0.00    0.000    0.000     259.4    196.6    0.66   140.6     270.5     145.1     133.6     105.8      89.9      66.0    0.000     0.000     0.000     0.000     0.000    0.66     0.00    0.00      0   -9.90   -9.00       17.3       22.0       22.0       22.0       22.0       22.0       22.0       22.0       22.0       22.0       22.0       22.0        0.0        0.0        0.0        0.0        0.0        0.0        0.0        0.0        0.0        0.0        0.0        0.0      0.0       5.1      24.2      28.5      32.7    363.88
    10     3  1997    32     2     256.0     0.0      0.0    0.0    0.0    0.0      0.1      0.0   -9.90      5.0      2.4     48      0.9      0.9   100      6.0     3.4      56     19.3    0.67      0      0      0      0      0     9.9     9.9      0     0.17      0.9      0.9      0.9   100    17.7     0.238    -9.9    0.000    0.000      85        0.00    0.000    0.000     256.0    193.1    0.67   139.7     275.4     147.8     137.1     108.6      92.2      67.2    0.000     0.000     0.000     0.000     0.000    0.67     0.00    0.00      0   -9.90   -9.00       13.9       22.0       22.0       22.0       22.0       22.0       22.0       22.0       22.0       22.0       22.0       22.0        0.0        0.0        0.0        0.0        0.0        0.0        0.0        0.0        0.0        0.0        0.0        0.0      0.0       5.5      24.6      28.7      32.7    363.88
    11     3  1997    33     2     253.4     0.0      0.0    0.0    0.0    0.0      0.0      0.0   -9.90      4.9      1.4     29      1.1      1.1   100      6.0     2.5      42     19.4    0.68      0      0      0      0      0    11.4    11.4      0     0.19      1.1      1.1      1.1   100    17.7     0.272    -9.9    0.000    0.000      84        0.00    0.000    0.000     253.4    190.6    0.68   139.8     280.2     150.4     139.6     110.6      93.9      68.3    0.000     0.000     0.000     0.000     0.000    0.68     0.00    0.00      0   -9.90   -9.00       11.4       22.0       22.0       22.0       22.0       22.0       22.0       22.0       22.0       22.0       22.0       22.0        0.0        0.0        0.0        0.0        0.0        0.0        0.0        0.0        0.0        0.0        0.0        0.0      0.0       5.5      24.7      28.6      32.6    363.88
    12     3  1997    34     2     251.3     0.0      0.0    0.0    0.0    0.0      0.0      0.0   -9.90      4.9      0.9     19      1.2      1.2   100      6.1     2.2      36     19.1    0.70      0      0      0      0      0    13.2    13.2      0     0.22      1.2      1.2      1.2   100    17.7     0.311    -9.9    0.000    0.000      84        0.00    0.000    0.000     251.3    188.4    0.70   140.2     285.0     152.9     142.3     112.7      95.7      69.5    0.000     0.000     0.000     0.000     0.000    0.70     0.00    0.00      0   -9.90   -9.00        9.4       21.9       22.0       22.0       22.0       22.0       22.0       22.0       22.0       22.0       22.0       22.0        0.0        0.0        0.0        0.0        0.0        0.0        0.0        0.0        0.0        0.0        0.0        0.0      0.0       5.6      24.1      28.8      33.4    363.88
    13     3  1997    35     2     249.2     0.0      0.0    0.0    0.0    0.0      0.0      0.0   -9.90      4.8      0.6     13      1.4      1.4   100      6.3     2.1      33     19.4    0.71      1      0      0      0      0    15.1    15.1      0     0.25      1.4      1.4      1.4   100    17.7     0.356    -9.9    0.000    0.000      83        0.00    0.000    0.000     249.2    186.3    0.71   140.6     289.7     155.4     145.1     115.0      97.6      70.7    0.000     0.000     0.000     0.000     0.000    0.71     0.00    0.00      0   -9.90   -9.00        8.7       20.4       22.0       22.0       22.0       22.0       22.0       22.0       22.0       22.0       22.0       22.0        0.0        0.0        0.0        0.0        0.0        0.0        0.0        0.0        0.0        0.0        0.0        0.0      0.0       5.8      24.7      29.2      33.8    363.88
    14     3  1997    36     2     247.1     0.0      0.0    0.0    0.0    0.0      0.0      0.0   -9.90      4.4      0.5     10      1.6      1.6   100      6.0     2.0      34     19.4    0.72      2      0      0      0      0    17.3    17.3      0     0.28      1.6      1.6      1.6   100    17.7     0.406    -9.9    0.000    0.000      83        0.00    0.000    0.000     247.1    184.3    0.72   141.1     294.3     157.9     146.7     116.2      98.7      71.8    0.000     0.000     0.000     0.000     0.000    0.72     0.00    0.00      0   -9.90   -9.00        8.3       18.9       22.0       22.0       22.0       22.0       22.0       22.0       22.0       22.0       22.0       22.0        0.0        0.0        0.0        0.0        0.0        0.0        0.0        0.0        0.0        0.0        0.0        0.0      0.0       5.5      24.7      29.1      33.5    363.88
    15     3  1997    37     2     244.7     0.3      0.0    0.0    0.3    0.0      0.0      0.0   -9.90      4.4      0.9     20      1.8      1.8   100      6.2     2.7      44     19.2    0.73      3      0      0      0      0    19.9    19.9      0     0.32      1.8      1.8      1.8   100    17.7     0.463    -9.9    0.000    0.000      83        0.00    0.000    0.000     244.7    181.9    0.73   141.1     298.9     160.4     149.6     118.5     100.6      72.9    0.000     0.000     0.000     0.000     0.000    0.73     0.00    0.00      0   -9.90   -9.00        7.7       17.1       22.0       22.0       22.0       22.0       22.0       22.0       22.0       22.0       22.0       22.0        0.0        0.0        0.0        0.0        0.0        0.0        0.0        0.0        0.0        0.0        0.0        0.0      0.3       5.7      24.5      28.6      32.6    363.88
    16     3  1997    38     2     242.4     0.4      0.0    0.0    0.4    0.0      0.0      0.0   -9.90      4.0      0.8     19      2.0      2.0   100      6.1     2.8      46     19.9    0.74      5      0      0      0      0    22.7    22.7      0     0.36      2.0      2.0      2.0   100    17.7     0.526    -9.9    0.000    0.000      82        0.00    0.000    0.000     242.4    179.5    0.74   141.2     303.5     162.8     151.5     120.0     101.9      74.0    0.000     0.000     0.000     0.000     0.000    0.74     0.00    0.00      0   -9.90   -9.00        7.3       15.0       22.0       22.0       22.0       22.0       22.0       22.0       22.0       22.0       22.0       22.0        0.0        0.0        0.0        0.0        0.0        0.0        0.0        0.0        0.0        0.0        0.0        0.0      0.4       5.6      25.8      29.0      32.2    363.88
    17     3  1997    39     2     239.9     0.3      0.0    0.0    0.3    0.0      0.0      0.0   -9.90      3.7      0.5     15      2.2      2.2   100      5.9     2.8      46     19.6    0.75      6      0      0      0      0    25.9    25.9      0     0.40      2.2      2.2      2.2   100    17.7     0.598    -9.9    0.000    0.000      82        0.00    0.000    0.000     239.9    177.1    0.75   141.2     308.0     165.3     153.4     121.5     103.2      75.1    0.000     0.000     0.000     0.000     0.000    0.75     0.00    0.00      0   -9.90   -9.00        7.1       12.8       22.0       22.0       22.0       22.0       22.0       22.0       22.0       22.0       22.0       22.0        0.0        0.0        0.0        0.0        0.0        0.0        0.0        0.0        0.0        0.0        0.0        0.0      0.3       5.5      25.3      28.6      31.9    363.88
    18     3  1997    40     2     237.2     0.0      0.0    0.0    0.0    0.0      0.0      0.0   -9.90      3.6      0.2      5      2.5      2.5   100      6.1     2.7      45     19.4    0.76      9      0      0      0      0    29.4    29.4      0     0.45      2.5      2.5      2.5   100    17.7     0.677    -9.9    0.000    0.000      82        0.00    0.000    0.000     237.2    174.4    0.76   140.9     312.5     167.7     156.1     123.6     105.0      76.2    0.000     0.000     0.000     0.000     0.000    0.76     0.00    0.00      0   -9.90   -9.00        6.9       10.3       22.0       22.0       22.0       22.0       22.0       22.0       22.0       22.0       22.0       22.0        0.0        0.0        0.0        0.0        0.0        0.0        0.0        0.0        0.0        0.0        0.0        0.0      0.0       5.6      24.7      28.7      32.7    363.88
    19     3  1997    41     2     234.3     0.0      0.0    0.0    0.0    0.0      0.0      0.0   -9.90      3.3      0.1      4      2.8      2.8   100      6.0     2.9      48     19.4    0.77     12      0      0      0      0    33.2    33.2      0     0.50      2.8      2.8      2.8   100    17.7     0.765    -9.9    0.000    0.000      82        0.00    0.000    0.000     234.3    171.5    0.77   140.3     316.9     170.0     158.3     125.4     106.4      77.3    0.000     0.000     0.000     0.000     0.000    0.77     0.00    0.00      0   -9.90   -9.00        6.8        9.7       19.9       22.0       22.0       22.0       22.0       22.0       22.0       22.0       22.0       22.0        0.0        0.0        0.0        0.0        0.0        0.0        0.0        0.0        0.0        0.0        0.0        0.0      0.0       5.6      24.8      28.6      32.5    363.88
    20     3  1997    42     2     231.0     0.0      0.0    0.0    0.0    0.0      0.0      0.0   -9.90      3.1      0.1      3      3.2      3.2   100      6.2     3.3      52     19.4    0.78     17      0      0      0      0    37.3    37.3      0     0.54      3.2      3.2      3.2   100    17.7     0.862    -9.9    0.000    0.000      82        0.00    0.000    0.000     231.0    168.2    0.78   139.4     321.2     172.4     161.1     127.6     108.3      78.4    0.000     0.000     0.000     0.000     0.000    0.78     0.00    0.00      0   -9.90   -9.00        6.7        9.7       16.7       22.0       22.0       22.0       22.0       22.0       22.0       22.0       22.0       22.0        0.0        0.0        0.0        0.0        0.0        0.0        0.0        0.0        0.0        0.0        0.0        0.0      0.0       5.8      24.8      28.5      32.2    363.88
    21     3  1997    43     2     229.1     3.5      0.0    0.0    3.5    0.0      0.0      0.0   -9.90      2.4      2.4    100      3.0      3.0   100      5.5     5.5     100     20.1    0.79     12      0      0      0      0    41.7    41.7      0     0.59      3.0      3.0      3.0   100    17.7     0.967    -9.9    0.000    0.000      82        0.00    0.000    0.000     229.1    166.2    0.79   139.8     325.6     174.7     160.7     127.3     108.2      79.4    0.000     0.000     0.000     0.000     0.000    0.79     0.00    0.00      0   -9.90   -9.00        7.7        9.7       13.7       22.0       22.0       22.0       22.0       22.0       22.0       22.0       22.0       22.0        0.0        0.0        0.0        0.0        0.0        0.0        0.0        0.0        0.0        0.0        0.0        0.0      3.5       5.1      26.2      28.2      30.3    363.88
    22     3  1997    44     2     263.7     0.2     40.2    0.0   40.4    0.0      0.0      0.0   -9.90      2.3      2.3    100      3.4      3.4   100      5.8     5.8     100     19.4    0.80      0      0      0      0      0    46.0    46.0      0     0.64      3.4      3.4      3.4   100    17.7     1.081    -9.9    0.000    0.000      83        0.00    0.000    0.000     263.7    200.9    0.80   176.7     329.9     177.0     163.9     129.8     110.3      80.5    0.000     0.000     0.000     0.000     0.000    0.80     0.00    0.00      0   -9.90   -9.00       35.2       16.8       13.7       22.0       22.0       22.0       22.0       22.0       22.0       22.0       22.0       22.0        0.0        0.0        0.0        0.0        0.0        0.0        0.0        0.0        0.0        0.0        0.0        0.0      0.2       5.4      24.9      28.4      31.9    363.88
    23     3  1997    45     2     257.6     0.0      0.0    0.0    0.0    0.0      0.0      0.0   -9.90      2.2      2.2    100      3.9      3.9   100      6.1     6.1     100     18.9    0.81      0      0      0      0      0    49.8    49.8      0     0.68      3.9      3.9      3.9   100    17.7     1.201    -9.9    0.000    0.000      84        0.00    0.000    0.000     257.6    194.8    0.81   172.9     334.1     179.3     167.3     132.5     112.5      81.5    0.000     0.000     0.000     0.000     0.000    0.81     0.00    0.00      0   -9.90   -9.00       16.3       22.4       20.9       22.0       22.0       22.0       22.0       22.0       22.0       22.0       22.0       22.0        0.0        0.0        0.0        0.0        0.0        0.0        0.0        0.0        0.0        0.0        0.0        0.0      0.0       5.7      23.8      28.5      33.1    363.88
    24     3  1997    46     2     251.6     0.0      0.0    0.0    0.0    0.0      0.0      0.0   -9.90      2.0      2.0    100      4.0      4.0   100      6.0     6.0     100     19.1    0.83      0      0      0      0      0    53.1    53.1      0     0.71      4.0      4.0      4.0   100    17.7     1.327    -9.9    0.000    0.000      84        0.00    0.000    0.000     251.6    188.7    0.83   169.1     338.4     181.6     169.0     133.9     113.7      82.5    0.000     0.000     0.000     0.000     0.000    0.83     0.00    0.00      0   -9.90   -9.00       10.3       22.0       21.3       22.0       22.0       22.0       22.0       22.0       22.0       22.0       22.0       22.0        0.0        0.0        0.0        0.0        0.0        0.0        0.0        0.0        0.0        0.0        0.0        0.0      0.0       5.6      24.2      28.4      32.5    363.88
    25     3  1997    47     2     246.8     0.0      0.0    0.0    0.0    0.0      0.0      0.0   -9.90      1.8      0.8     48      4.0      4.0   100      5.7     4.8      84     18.9    0.84      0      0      0      0      0    56.0    56.0      0     0.74      4.0      4.0      4.0   100    17.7     1.458    -9.9    0.000    0.000      85        0.00    0.000    0.000     246.8    183.9    0.84   166.6     342.5     183.8     170.2     134.8     114.5      83.5    0.000     0.000     0.000     0.000     0.000    0.84     0.00    0.00      0   -9.90   -9.00        9.4       18.0       21.3       22.0       22.0       22.0       22.0       22.0       22.0       22.0       22.0       22.0        0.0        0.0        0.0        0.0        0.0        0.0        0.0        0.0        0.0        0.0        0.0        0.0      0.0       5.4      23.7      27.8      31.8    363.88
    26     3  1997    48     2     242.0     0.0      0.0    0.0    0.0    0.0      0.0      0.0   -9.90      1.8      0.3     17      4.4      4.4   100      6.2     4.8      76     18.8    0.85      2      0      0      0      0    58.4    58.4      0     0.76      4.4      4.4      4.4   100    17.7     1.592    -9.9    0.000    0.000      86        0.00    0.000    0.000     242.0    179.2    0.85   164.0     346.7     186.0     174.1     137.9     117.0      84.6    0.000     0.000     0.000     0.000     0.000    0.85     0.00    0.00      0   -9.90   -9.00        9.1       13.6       21.3       22.0       22.0       22.0       22.0       22.0       22.0       22.0       22.0       22.0        0.0        0.0        0.0        0.0        0.0        0.0        0.0        0.0        0.0        0.0        0.0        0.0      0.0       5.9      23.6      27.7      31.8    363.88
    27     3  1997    49     2     237.4     0.0      0.0    0.0    0.0    0.0      0.0      0.0   -9.90      1.6      0.2      9      4.4      4.4   100      6.1     4.6      76     18.9    0.86      5      0      0      0      0    60.5    60.5      0     0.78      4.4      4.4      4.4   100    17.7     1.730    -9.9    0.000    0.000      87        0.00    0.000    0.000     237.4    174.6    0.86   161.7     350.8     188.2     175.6     139.1     118.0      85.6    0.000     0.000     0.000     0.000     0.000    0.86     0.00    0.00      0   -9.90   -9.00        9.0        9.6       20.8       22.0       22.0       22.0       22.0       22.0       22.0       22.0       22.0       22.0        0.0        0.0        0.0        0.0        0.0        0.0        0.0        0.0        0.0        0.0        0.0        0.0      0.0       5.7      23.8      28.2      32.7    363.88
    28     3  1997    50     2     232.7     0.0      0.0    0.0    0.0    0.0      0.0      0.0   -9.90      1.6      0.1      5      4.6      4.6   100      6.2     4.7      76     18.8    0.87      9      0      0      0      0    62.2    62.2      0     0.79      4.6      4.6      4.6   100    17.7     1.871    -9.9    0.000    0.000      87        0.00    0.000    0.000     232.7    169.9    0.87   159.1     354.9     190.4     178.1     141.1     119.7      86.6    0.000     0.000     0.000     0.000     0.000    0.87     0.00    0.00      0   -9.90   -9.00        8.9        9.6       16.8       21.4       22.0       22.0       22.0       22.0       22.0       22.0       22.0       22.0        0.0        0.0        0.0        0.0        0.0        0.0        0.0        0.0        0.0        0.0        0.0        0.0      0.0       5.8      23.6      28.6      33.6    363.88
    29     3  1997    51     2     227.9     0.0      0.0    0.0    0.0    0.0      0.0      0.0   -9.90      1.5      0.1      5      4.7      4.7   100      6.2     4.8      77     19.6    0.88     15      0      0      0      0    63.6    63.6      0     0.81      4.7      4.7      4.7   100    17.7     2.014    -9.9    0.000    0.000      88        0.00    0.000    0.000     227.9    165.1    0.88   156.5     359.0     192.6     180.3     142.8     121.2      87.6    0.000     0.000     0.000     0.000     0.000    0.88     0.00    0.00      0   -9.90   -9.00        8.8        9.6       12.8       20.7       22.0       22.0       22.0       22.0       22.0       22.0       22.0       22.0        0.0        0.0        0.0        0.0        0.0        0.0        0.0        0.0        0.0        0.0        0.0        0.0      0.0       5.9      25.1      29.6      34.1    363.88
    30     3  1997    52     2     263.5     0.0     42.4    0.0   42.4    0.0      0.0      0.0   -9.90      1.6      1.6    100      5.2      5.2   100      6.8     6.8     100     19.2    0.89      0      0      0      0      0    65.1    65.1      0     0.82      5.2      5.2      5.2   100    17.7     2.159    -9.9    0.000    0.000      88        0.00    0.000    0.000     263.5    200.6    0.89   194.2     363.0     194.8     184.3     146.0     123.7      88.5    0.000     0.000     0.000     0.000     0.000    0.89     0.00    0.00      0   -9.90   -9.00       34.3       19.7       12.8       20.7       22.0       22.0       22.0       22.0       22.0       22.0       22.0       22.0        0.0        0.0        0.0        0.0        0.0        0.0        0.0        0.0        0.0        0.0        0.0        0.0      0.0       6.4      24.5      29.6      34.7    363.88
    31     3  1997    53     2     257.3     0.0      0.0    0.0    0.0    0.0      0.0      0.0   -9.90      1.3      1.3    100      4.8      4.8   100      6.2     6.2     100     19.2    0.90      0      0      0      0      0    66.4    66.4      0     0.83      4.8      4.8      4.8   100    17.7     2.306    -9.9    0.000    0.000      89        0.00    0.000    0.000     257.3    194.5    0.90   190.2     367.0     196.9     184.1     145.8     123.7      89.5    0.000     0.000     0.000     0.000     0.000    0.90     0.00    0.00      0   -9.90   -9.00       16.3       22.5       21.9       20.7       22.0       22.0       22.0       22.0       22.0       22.0       22.0       22.0        0.0        0.0        0.0        0.0        0.0        0.0        0.0        0.0        0.0        0.0        0.0        0.0      0.0       5.8      24.5      29.1      33.6    363.88
     1     4  1997    54     2     251.4     0.1      0.0    0.0    0.1    0.0      0.0      0.0   -9.90      1.3      1.1     89      4.8      4.8   100      6.1     6.0      98     19.6    0.90      0      0      0      0      0    67.5    67.5      0     0.84      4.8      4.8      4.8   100    17.7     2.455    -9.9    0.000    0.000      89        0.00    0.000    0.000     251.4    188.6    0.90   186.5     371.0     199.1     185.9     147.3     125.0      90.5    0.000     0.000     0.000     0.000     0.000    0.90     0.00    0.00      0   -9.90   -9.00       10.4       22.0       22.0       21.0       22.0       22.0       22.0       22.0       22.0       22.0       22.0       22.0        0.0        0.0        0.0        0.0        0.0        0.0        0.0        0.0        0.0        0.0        0.0        0.0      0.1       5.8      25.3      29.5      33.7    363.88
     2     4  1997    55     2     246.0     0.0      0.0    0.0    0.0    0.0      0.0      0.0   -9.90      1.3      0.4     27      5.1      5.1   100      6.4     5.4      85     19.9    0.91      0      0      0      0      0    68.5    68.5      0     0.85      5.1      5.1      5.1   100    17.7     2.605    -9.9    0.000    0.000      90        0.00    0.000    0.000     246.0    183.2    0.91   183.2     374.9     201.2     188.9     149.6     126.9      91.4    0.000     0.000     0.000     0.000     0.000    0.91     0.00    0.00      0   -9.90   -9.00       10.0       17.4       21.6       21.1       22.0       22.0       22.0       22.0       22.0       22.0       22.0       22.0        0.0        0.0        0.0        0.0        0.0        0.0        0.0        0.0        0.0        0.0        0.0        0.0      0.0       6.0      25.9      30.3      34.8    363.88
     3     4  1997    56     2     240.6     0.0      0.0    0.0    0.0    0.0      0.0      0.0   -9.90      1.3      0.2     15      5.2      5.2   100      6.5     5.4      83     20.3    0.91      3      0      0      0      0    69.3    69.3      0     0.85      5.2      5.2      5.2   100    17.7     2.756    -9.9    0.000    0.000      90        0.00    0.000    0.000     240.6    177.7    0.91   177.7     374.9     201.2     189.4     150.0     127.2      91.4    0.000     0.000     0.000     0.000     0.000    0.91     0.00    0.00      0   -9.90   -9.00        9.8       12.8       21.0       21.1       22.0       22.0       22.0       22.0       22.0       22.0       22.0       22.0        0.0        0.0        0.0        0.0        0.0        0.0        0.0        0.0        0.0        0.0        0.0        0.0      0.0       6.1      26.6      30.8      35.0    363.88
     4     4  1997    57     2     235.2     0.0      0.0    0.0    0.0    0.0      0.0      0.0   -9.90      1.2      0.1      9      5.2      5.2   100      6.4     5.3      83     20.4    0.91      6      0      0      0      0    70.0    70.0      0     0.86      5.2      5.2      5.2   100    17.7     2.908    -9.9    0.000    0.000      91        0.00    0.000    0.000     235.2    172.4    0.91   172.4     374.9     201.2     189.1     149.8     127.0      91.4    0.000     0.000     0.000     0.000     0.000    0.91     0.00    0.00      0   -9.90   -9.00        9.7        9.2       19.3       21.1       22.0       22.0       22.0       22.0       22.0       22.0       22.0       22.0        0.0        0.0        0.0        0.0        0.0        0.0        0.0        0.0        0.0        0.0        0.0        0.0      0.0       6.1      26.7      30.8      34.8    363.88
     5     4  1997    58     2     230.1     0.0      0.0    0.0    0.0    0.0      0.0      0.0   -9.90      1.2      0.1      5      5.1      5.1   100      6.3     5.2      82     20.1    0.91     10      0      0      0      0    70.6    70.6      0     0.86      5.1      5.1      5.1   100    17.7     3.061    -9.9    0.000    0.000      91        0.00    0.000    0.000     230.1    167.2    0.91   167.2     374.9     201.2     188.5     149.3     126.7      91.4    0.000     0.000     0.000     0.000     0.000    0.91     0.00    0.00      0   -9.90   -9.00        9.6        9.2       15.2       20.0       22.0       22.0       22.0       22.0       22.0       22.0       22.0       22.0        0.0        0.0        0.0        0.0        0.0        0.0        0.0        0.0        0.0        0.0        0.0        0.0      0.0       5.9      26.3      30.6      35.0    363.88
     6     4  1997    59     2     224.5     0.0      0.0    0.0    0.0    0.0      0.0      0.0   -9.90      1.2      0.1      5      5.5      5.5   100      6.8     5.6      83     20.1    0.91     19      0      0      0      0    71.1    71.1      0     0.87      5.5      5.5      5.5   100    17.7     3.215    -9.9    0.000    0.000      91        0.00    0.000    0.000     224.5    161.7    0.91   161.7     374.9     201.2     190.4     150.8     127.8      91.4    0.000     0.000     0.000     0.000     0.000    0.91     0.00    0.00      0   -9.90   -9.00        9.6        9.2       11.3       18.4       22.0       22.0       22.0       22.0       22.0       22.0       22.0       22.0        0.0        0.0        0.0        0.0        0.0        0.0        0.0        0.0        0.0        0.0        0.0        0.0      0.0       6.4      26.1      31.2      36.4    363.88
     7     4  1997    60     2     263.9     0.0     46.3    0.0   46.3    0.0      0.0      0.0   -9.90      1.2      1.2    100      5.6      5.6   100      6.9     6.9     100     19.9    0.91      0      0      0      0      0    71.6    71.6      0     0.87      5.6      5.6      5.6   100    17.7     3.370    -9.9    0.000    0.000      92        0.00    0.000    0.000     263.9    201.1    0.91   201.1     374.9     201.2     190.8     151.1     128.1      91.4    0.000     0.000     0.000     0.000     0.000    0.91     0.00    0.00      0   -9.90   -9.00       34.6       23.5       11.3       18.4       22.0       22.0       22.0       22.0       22.0       22.0       22.0       22.0        0.0        0.0        0.0        0.0        0.0        0.0        0.0        0.0        0.0        0.0        0.0        0.0      0.0       6.5      25.8      31.4      36.9    363.88
     8     4  1997    61     2     257.1     0.0      0.0    0.0    0.0    0.0      0.0      0.0   -9.90      1.2      1.2    100      5.6      5.6   100      6.8     6.8     100     20.2    0.91      0      0      0      0      0    72.0    72.0      0     0.87      5.6      5.6      5.6   100    17.7     3.525    -9.9    0.000    0.000      92        0.00    0.000    0.000     257.1    194.2    0.91   194.2     374.9     201.2     190.7     151.0     128.0      91.4    0.000     0.000     0.000     0.000     0.000    0.91     0.00    0.00      0   -9.90   -9.00       16.1       21.9       22.2       20.9       22.0       22.0       22.0       22.0       22.0       22.0       22.0       22.0        0.0        0.0        0.0        0.0        0.0        0.0        0.0        0.0        0.0        0.0        0.0        0.0      0.0       6.5      26.4      31.3      36.2    363.88
     9     4  1997    62     2     250.8     0.0      0.0    0.0    0.0    0.0      0.0      0.0   -9.90      1.1      1.1    100      5.2      5.2   100      6.2     6.2     100     19.9    0.91      0      0      0      0      0    72.4    72.4      0     0.88      5.2      5.2      5.2   100    17.7     3.680    -9.9    0.000    0.000      92        0.00    0.000    0.000     250.8    188.0    0.91   188.0     374.9     201.2     188.4     149.2     126.6      91.4    0.000     0.000     0.000     0.000     0.000    0.91     0.00    0.00      0   -9.90   -9.00       10.1       21.6       22.0       21.1       22.0       22.0       22.0       22.0       22.0       22.0       22.0       22.0        0.0        0.0        0.0        0.0        0.0        0.0        0.0        0.0        0.0        0.0        0.0        0.0      0.0       5.9      25.8      29.5      33.3    363.88
    10     4  1997    63     2     244.6     0.0      0.0    0.0    0.0    0.0      0.0      0.0   -9.90      1.1      1.1    100      5.2      5.2   100      6.2     6.2     100     20.2    0.91      0      0      0      0      0    72.8    72.8      0     0.88      5.2      5.2      5.2   100    17.7     3.836    -9.9    0.000    0.000      93        0.00    0.000    0.000     244.6    181.8    0.91   181.8     374.9     201.2     188.4     149.2     126.6      91.4    0.000     0.000     0.000     0.000     0.000    0.91     0.00    0.00      0   -9.90   -9.00        9.1       17.0       21.4       21.1       22.0       22.0       22.0       22.0       22.0       22.0       22.0       22.0        0.0        0.0        0.0        0.0        0.0        0.0        0.0        0.0        0.0        0.0        0.0        0.0      0.0       5.9      26.4      30.0      33.6    363.88
    11     4  1997    64     2     238.1     0.0      0.0    0.0    0.0    0.0      0.0      0.0   -9.90      1.1      1.1    100      5.4      5.4   100      6.4     6.4     100     20.2    0.91      3      0      0      0      0    73.0    73.0      0     0.88      5.4      5.4      5.4   100    17.7     3.993    -9.9    0.000    0.000      93        0.00    0.000    0.000     238.1    175.3    0.91   175.3     374.9     201.2     189.2     149.8     127.1      91.4    0.000     0.000     0.000     0.000     0.000    0.91     0.00    0.00      0   -9.90   -9.00        8.0       12.4       20.7       21.1       22.0       22.0       22.0       22.0       22.0       22.0       22.0       22.0        0.0        0.0        0.0        0.0        0.0        0.0        0.0        0.0        0.0        0.0        0.0        0.0      0.0       6.1      26.5      29.9      33.4    363.88
    12     4  1997    65     2     231.9     0.0      0.0    0.0    0.0    0.0      0.0      0.0   -9.90      1.0      1.0    100      5.2      5.2   100      6.2     6.2     100     21.0    0.91      7      0      0      0      0    73.3    73.3      0     0.88      5.2      5.2      5.2   100    17.7     4.150    -9.9    0.000    0.000      93        0.00    0.000    0.000     231.9    169.1    0.91   169.1     374.9     201.2     188.4     149.2     126.6      91.4    0.000     0.000     0.000     0.000     0.000    0.91     0.00    0.00      0   -9.90   -9.00        7.0        9.1       18.8       21.1       22.0       22.0       22.0       22.0       22.0       22.0       22.0       22.0        0.0        0.0        0.0        0.0        0.0        0.0        0.0        0.0        0.0        0.0        0.0        0.0      0.0       5.9      28.0      30.6      33.3    363.88
    13     4  1997    66     3     226.8     0.5      0.0    0.0    0.5    0.0      0.0      0.0   -9.90      1.0      0.5     52      5.1      5.1   100      6.1     5.6      92     20.2    0.91     13      0      0      0      0    73.5    73.5      0     0.89      5.1      5.1      5.1   100    17.7     4.307    -9.9    0.000    0.000      93        0.00    0.000    0.000     226.8    164.0    0.91   164.0     374.9     201.2     187.9     148.8     126.3      91.4    0.000     0.000     0.000     0.000     0.000    0.91     0.00    0.00      0   -9.90   -9.00        6.9        9.1       14.7       20.1       22.0       22.0       22.0       22.0       22.0       22.0       22.0       22.0        0.0        0.0        0.0        0.0        0.0        0.0        0.0        0.0        0.0        0.0        0.0        0.0      0.5       5.8      26.4      30.2      34.0    363.88
    14     4  1997    67     3     264.0     0.0     43.3    0.0   43.3    0.0      0.0      0.0   -9.90      1.0      1.0    100      5.1      5.1   100      6.1     6.1     100     19.8    0.91      0      0      0      0      0    74.2    74.2      0     0.89      5.1      5.1      5.1   100    17.7     4.465    -9.9    0.000    0.000      94        0.00    0.000    0.000     264.0    201.2    0.91   201.2     374.9     201.2     187.8     148.7     126.2      91.4    0.000     0.000     0.000     0.000     0.000    0.91     0.00    0.00      0   -9.90   -9.00       34.9       18.4       14.7       20.1       22.0       22.0       22.0       22.0       22.0       22.0       22.0       22.0        0.0        0.0        0.0        0.0        0.0        0.0        0.0        0.0        0.0        0.0        0.0        0.0      0.0       5.7      25.6      29.6      33.5    363.88
    15     4  1997    68     3     257.8     0.0      0.0    0.0    0.0    0.0      0.0      0.0   -9.90      1.0      1.0    100      5.3      5.3   100      6.2     6.2     100     19.5    0.91     -9      0      0      0      0    74.3    74.3      0     0.89      5.3      5.3      5.3   100    17.7     4.623    -9.9    0.000    0.000      94        0.00    0.000    0.000     257.8    195.0    0.91   195.0     374.9     201.2     188.4     149.2     126.6      91.4    0.000     0.000     0.000     0.000     0.000    0.91     0.00    0.00      0   -9.90   -9.00       16.3       22.3       22.1       21.1       22.0       22.0       22.0       22.0       22.0       22.0       22.0       22.0        0.0        0.0        0.0        0.0        0.0        0.0        0.0        0.0        0.0        0.0        0.0        0.0      0.0       5.9      25.0      29.6      34.2    363.88
    16     4  1997    69     3     251.1     0.0      0.0    0.0    0.0    0.0      0.0      0.0   -9.90      1.0      1.0    100      5.6      5.6   100      6.7     6.7     100     19.6    0.91     -9      0      0      0      0    74.4    74.4      0     0.89      5.6      5.6      5.6   100    17.7     4.781     1.5    0.072    1.439      94        0.03    0.000    0.000     251.1    188.3    0.91   188.3     374.9     201.2     190.1     150.6     127.6      91.4    0.000     0.000     0.000     0.000     0.000    0.91     0.00    0.00      0   -9.90   -9.00       10.3       21.3       22.0       21.5       22.0       22.0       22.0       22.0       22.0       22.0       22.0       22.0        0.0        0.0        0.0        0.0        0.0        0.0        0.0        0.0        0.0        0.0        0.0        0.0      0.0       6.3      25.1      29.9      34.7    363.88
    17     4  1997    70     3     244.5     0.0      0.0    0.0    0.0    0.0      0.0      0.0   -9.90      1.0      1.0    100      5.6      5.6   100      6.6     6.6     100     20.0    0.91     -9      0      0      0      0    74.5    74.5      0     0.89      5.6      5.6      5.6   100    17.7     4.939     1.7    0.085    1.702      94        0.03    0.000    0.000     244.5    181.7    0.91   181.7     374.9     201.2     189.9     150.4     127.5      91.4    0.000     0.000     0.000     0.000     0.000    0.91     0.00    0.00      0   -9.90   -9.00        9.3       16.7       21.0       21.5       22.0       22.0       22.0       22.0       22.0       22.0       22.0       22.0        0.0        0.0        0.0        0.0        0.0        0.0        0.0        0.0        0.0        0.0        0.0        0.0      0.0       6.3      26.0      31.1      36.1    363.88
    18     4  1997    71     3     237.9     0.0      0.0    0.0    0.0    0.0      0.0      0.0   -9.90      1.0      1.0    100      5.6      5.6   100      6.6     6.6     100     20.3    0.91     -9      0      0      0      0    74.5    74.5      0     0.89      5.6      5.6      5.6   100    17.7     5.097     2.0    0.101    2.011      94        0.04    0.000    0.000     237.9    175.1    0.91   175.1     374.9     201.2     189.8     150.4     127.5      91.4    0.000     0.000     0.000     0.000     0.000    0.91     0.00    0.00      0   -9.90   -9.00        8.2       12.1       20.1       21.5       22.0       22.0       22.0       22.0       22.0       22.0       22.0       22.0        0.0        0.0        0.0        0.0        0.0        0.0        0.0        0.0        0.0        0.0        0.0        0.0      0.0       6.2      26.6      31.8      37.0    363.88
    19     4  1997    72     3     231.3     0.0      0.0    0.0    0.0    0.0      0.0      0.0   -9.90      1.0      1.0    100      5.6      5.6   100      6.6     6.6     100     20.9    0.91     -9      0      0      0      0    74.6    74.6      0     0.89      5.6      5.6      5.6   100    17.7     5.256     2.3    0.119    2.371      94        0.04    0.000    0.000     231.3    168.5    0.91   168.5     374.9     201.2     189.8     150.4     127.5      91.4    0.000     0.000     0.000     0.000     0.000    0.91     0.00    0.00      0   -9.90   -9.00        7.2        9.1       17.5       21.5       22.0       22.0       22.0       22.0       22.0       22.0       22.0       22.0        0.0        0.0        0.0        0.0        0.0        0.0        0.0        0.0        0.0        0.0        0.0        0.0      0.0       6.2      27.7      31.9      36.0    363.88
    20     4  1997    73     3     226.2     0.2      0.0    0.0    0.2    0.0      0.0      0.0   -9.90      0.9      0.2     24      5.1      5.1   100      6.1     5.4      88     21.0    0.91     -9      0      0      0      0    74.6    74.6      0     0.89      5.1      5.1      5.1   100    17.7     5.413     2.6    0.140    2.792      95        0.05    0.000    0.000     226.2    163.3    0.91   163.3     374.9     201.2     187.8     148.8     126.3      91.4    0.000     0.000     0.000     0.000     0.000    0.91     0.00    0.00      0   -9.90   -9.00        7.2        9.1       13.5       20.4       22.0       22.0       22.0       22.0       22.0       22.0       22.0       22.0        0.0        0.0        0.0        0.0        0.0        0.0        0.0        0.0        0.0        0.0        0.0        0.0      0.2       5.8      28.0      31.9      35.7    363.88
    21     4  1997    74     3     263.8     0.0     43.9    0.0   43.9    0.0      0.0      0.0   -9.90      1.0      1.0    100      5.3      5.3   100      6.2     6.2     100     20.8    0.91     -9      0      0      0      0    74.7    74.7      0     0.89      5.3      5.3      5.3   100    17.7     5.571     2.9    0.164    3.282      95        0.06    0.000    0.000     263.8    201.0    0.91   201.0     374.9     201.2     188.5     149.3     126.6      91.4    0.000     0.000     0.000     0.000     0.000    0.91     0.00    0.00      0   -9.90   -9.00       34.9       19.1       13.5       20.4       22.0       22.0       22.0       22.0       22.0       22.0       22.0       22.0        0.0        0.0        0.0        0.0        0.0        0.0        0.0        0.0        0.0        0.0        0.0        0.0      0.0       5.9      27.5      31.5      35.5    363.88
    22     4  1997    75     3     257.4     0.0      0.0    0.0    0.0    0.0      0.0      0.0   -9.90      1.0      1.0    100      5.4      5.4   100      6.4     6.4     100     20.4    0.91     -9      0      0      0      0    74.7    74.7      0     0.89      5.4      5.4      5.4   100    17.7     5.729     3.4    0.193    3.851      95        0.07    0.000    0.000     257.4    194.6    0.91   194.6     374.9     201.2     189.2     149.9     127.1      91.4    0.000     0.000     0.000     0.000     0.000    0.91     0.00    0.00      0   -9.90   -9.00       16.3       22.2       22.0       20.9       22.0       22.0       22.0       22.0       22.0       22.0       22.0       22.0        0.0        0.0        0.0        0.0        0.0        0.0        0.0        0.0        0.0        0.0        0.0        0.0      0.0       6.1      26.8      31.1      35.5    363.88
    23     4  1997    76     3     250.9     0.0      0.0    0.0    0.0    0.0      0.0      0.0   -9.90      1.0      1.0    100      5.5      5.5   100      6.5     6.5     100     20.1    0.91     -9      0      0      0      0    74.8    74.8      0     0.89      5.5      5.5      5.5   100    17.7     5.887     3.8    0.226    4.511      95        0.07    0.000    0.000     250.9    188.1    0.91   188.1     374.9     201.2     189.8     150.3     127.4      91.4    0.000     0.000     0.000     0.000     0.000    0.91     0.00    0.00      0   -9.90   -9.00       10.3       21.4       22.0       21.1       22.0       22.0       22.0       22.0       22.0       22.0       22.0       22.0        0.0        0.0        0.0        0.0        0.0        0.0        0.0        0.0        0.0        0.0        0.0        0.0      0.0       6.2      26.2      30.4      34.6    363.88
    24     4  1997    77     3     244.5     0.0      0.0    0.0    0.0    0.0      0.0      0.0   -9.90      1.0      1.0    100      5.4      5.4   100      6.4     6.4     100     19.9    0.91     -9      0      0      0      0    74.8    74.8      0     0.89      5.4      5.4      5.4   100    17.7     6.044     4.4    0.264    5.274      95        0.09    0.000    0.000     244.5    181.7    0.91   181.7     374.9     201.2     189.2     149.8     127.1      91.4    0.000     0.000     0.000     0.000     0.000    0.91     0.00    0.00      0   -9.90   -9.00        9.3       16.8       21.2       21.1       22.0       22.0       22.0       22.0       22.0       22.0       22.0       22.0        0.0        0.0        0.0        0.0        0.0        0.0        0.0        0.0        0.0        0.0        0.0        0.0      0.0       6.1      25.8      30.6      35.5    363.88
    25     4  1997    78     3     238.2     0.0      0.0    0.0    0.0    0.0      0.0      0.0   -9.90      1.0      1.0    100      5.3      5.3   100      6.3     6.3     100     20.5    0.91     -9      0      0      0      0    74.8    74.8      0     0.89      5.3      5.3      5.3   100    17.7     6.202     5.0    0.308    6.155      95        0.10    0.000    0.000     238.2    175.4    0.91   175.4     374.9     201.2     188.9     149.6     126.9      91.4    0.000     0.000     0.000     0.000     0.000    0.91     0.00    0.00      0   -9.90   -9.00        8.4       12.2       20.5       21.1       22.0       22.0       22.0       22.0       22.0       22.0       22.0       22.0        0.0        0.0        0.0        0.0        0.0        0.0        0.0        0.0        0.0        0.0        0.0        0.0      0.0       6.0      27.0      30.9      34.7    363.88
    26     4  1997    79     3     231.8     0.0      0.0    0.0    0.0    0.0      0.0      0.0   -9.90      1.0      1.0    100      5.4      5.4   100      6.4     6.4     100     20.2    0.91     -9      0      0      0      0    74.8    74.8      0     0.89      5.4      5.4      5.4   100    17.7     6.359     5.6    0.358    7.168      95        0.11    0.000    0.000     231.8    169.0    0.91   169.0     374.9     201.2     189.3     149.9     127.1      91.4    0.000     0.000     0.000     0.000     0.000    0.91     0.00    0.00      0   -9.90   -9.00        7.4        9.1       18.2       21.1       22.0       22.0       22.0       22.0       22.0       22.0       22.0       22.0        0.0        0.0        0.0        0.0        0.0        0.0        0.0        0.0        0.0        0.0        0.0        0.0      0.0       6.1      26.5      30.6      34.6    363.88
    27     4  1997    80     3     225.4     0.0      0.0    0.0    0.0    0.0      0.0      0.0   -9.90      1.0      1.0    100      5.4      5.4   100      6.4     6.4     100     19.9    0.91     -9      0      0      0      0    74.9    74.9      0     0.89      5.4      5.4      5.4   100    17.7     6.516     6.4    0.416    8.330      95        0.13    0.000    0.000     225.4    162.6    0.91   162.6     374.9     201.2     189.2     149.9     127.1      91.4    0.000     0.000     0.000     0.000     0.000    0.91     0.00    0.00      0   -9.90   -9.00        6.4        9.1       14.1       19.8       22.0       22.0       22.0       22.0       22.0       22.0       22.0       22.0        0.0        0.0        0.0        0.0        0.0        0.0        0.0        0.0        0.0        0.0        0.0        0.0      0.0       6.1      25.9      30.2      34.6    363.88
    28     4  1997    81     3     264.0     0.0     45.0    0.0   45.0    0.0      0.0      0.0   -9.90      1.0      1.0    100      5.4      5.4   100      6.4     6.4     100     20.2    0.91     -9      0      0      0      0    74.9    74.9      0     0.88      5.4      5.4      5.4   100    17.7     6.673     7.2    0.483    9.656      96        0.14    0.000    0.000     264.0    201.1    0.91   201.1     374.9     201.2     189.4     150.0     127.2      91.4    0.000     0.000     0.000     0.000     0.000    0.91     0.00    0.00      0   -9.90   -9.00       34.9       19.1       14.1       19.8       22.0       22.0       22.0       22.0       22.0       22.0       22.0       22.0        0.0        0.0        0.0        0.0        0.0        0.0        0.0        0.0        0.0        0.0        0.0        0.0      0.0       6.2      26.4      31.0      35.6    363.88
    29     4  1997    82     3     257.7     0.0      0.0    0.0    0.0    0.0      0.0      0.0   -9.90      1.0      1.0    100      5.3      5.3   100      6.3     6.3     100     20.8    0.91     -9      0      0      0      0    74.9    74.9      0     0.88      5.3      5.3      5.3   100    17.7     6.829     8.2    0.558   11.166      96        0.16    0.000    0.000     257.7    194.9    0.91   194.9     374.9     201.2     188.8     149.5     126.8      91.4    0.000     0.000     0.000     0.000     0.000    0.91     0.00    0.00      0   -9.90   -9.00       16.3       22.3       22.1       21.0       22.0       22.0       22.0       22.0       22.0       22.0       22.0       22.0        0.0        0.0        0.0        0.0        0.0        0.0        0.0        0.0        0.0        0.0        0.0        0.0      0.0       6.0      27.6      31.6      35.5    363.88
    30     4  1997    83     3     251.2     0.0      0.0    0.0    0.0    0.0      0.0      0.0   -9.90      1.0      1.0    100      5.5      5.5   100      6.5     6.5     100     20.9    0.91     -9      0      0      0      0    74.9    74.9      0     0.88      5.5      5.5      5.5   100    17.7     6.986     9.2    0.644   12.876      96        0.19    0.000    0.000     251.2    188.4    0.91   188.4     374.9     201.2     189.6     150.2     127.4      91.4    0.000     0.000     0.000     0.000     0.000    0.91     0.00    0.00      0   -9.90   -9.00       10.3       21.5       22.0       21.4       22.0       22.0       22.0       22.0       22.0       22.0       22.0       22.0        0.0        0.0        0.0        0.0        0.0        0.0        0.0        0.0        0.0        0.0        0.0        0.0      0.0       6.2      27.9      31.8      35.6    363.88
     1     5  1997    84     3     244.2     0.0      0.0    0.0    0.0    0.0      0.0      0.0   -9.90      1.1      1.1    100      6.0      6.0   100      7.1     7.1     100     21.0    0.91     -9      0      0      0      0    74.9    74.9      0     0.88      6.0      6.0      6.0   100    17.7     7.143    10.4    0.740   14.804      96        0.21    0.000    0.000     244.2    181.3    0.91   181.3     374.9     201.2     192.0     152.1     128.8      91.4    0.000     0.000     0.000     0.000     0.000    0.91     0.00    0.00      0   -9.90   -9.00        9.3       16.9       20.6       21.4       22.0       22.0       22.0       22.0       22.0       22.0       22.0       22.0        0.0        0.0        0.0        0.0        0.0        0.0        0.0        0.0        0.0        0.0        0.0        0.0      0.0       6.8      28.7      33.2      37.8    363.88
     2     5  1997    85     3     236.7     0.0      0.0    0.0    0.0    0.0      0.0      0.0   -9.90      1.1      1.1    100      6.3      6.3   100      7.4     7.4     100     21.0    0.91     -9      0      0      0      0    74.9    74.9      0     0.88      6.3      6.3      6.3   100    17.7     7.299    11.6    0.848   16.968      96        0.23    0.000    0.000     236.7    173.9    0.91   173.9     374.9     201.2     193.4     153.2     129.6      91.4    0.000     0.000     0.000     0.000     0.000    0.91     0.00    0.00      0   -9.90   -9.00        8.1       12.3       19.0       21.4       22.0       22.0       22.0       22.0       22.0       22.0       22.0       22.0        0.0        0.0        0.0        0.0        0.0        0.0        0.0        0.0        0.0        0.0        0.0        0.0      0.0       7.1      29.8      34.0      38.2    363.88
     3     5  1997    86     3     229.7     0.0      0.0    0.0    0.0    0.0      0.0      0.0   -9.90      1.1      1.1    100      6.0      6.0   100      7.1     7.1     100     20.9    0.91     -9      0      0      0      0    74.9    74.9      0     0.88      6.0      6.0      6.0   100    17.7     7.455    12.9    0.965   19.295      96        0.26    0.000    0.000     229.7    166.8    0.91   166.8     374.9     201.2     192.1     152.1     128.8      91.4    0.000     0.000     0.000     0.000     0.000    0.91     0.00    0.00      0   -9.90   -9.00        7.0        9.2       16.1       21.4       22.0       22.0       22.0       22.0       22.0       22.0       22.0       22.0        0.0        0.0        0.0        0.0        0.0        0.0        0.0        0.0        0.0        0.0        0.0        0.0      0.0       6.8      27.9      33.1      38.4    363.88
     4     5  1997    87     3     264.2     0.0     41.4    0.0   41.4    0.0      0.0      0.0   -9.90      1.1      1.1    100      5.8      5.8   100      6.9     6.9     100     21.0    0.91     -9      0      0      0      0    74.9    74.9      0     0.88      5.8      5.8      5.8   100    17.7     7.611    14.3    1.085   21.704      96        0.29    0.000    0.000     264.2    201.4    0.91   201.4     374.9     201.2     191.2     151.5     128.3      91.4    0.000     0.000     0.000     0.000     0.000    0.91     0.00    0.00      0   -9.90   -9.00       34.8       15.9       16.1       21.4       22.0       22.0       22.0       22.0       22.0       22.0       22.0       22.0        0.0        0.0        0.0        0.0        0.0        0.0        0.0        0.0        0.0        0.0        0.0        0.0      0.0       6.6      29.2      33.2      37.3    363.88
[...]
     6     7  1997   150     4     257.9     2.2      0.0    0.0    2.2    0.0      0.5      0.0   -9.90      0.5      0.5    100      2.6      2.6   100      3.1     3.1     100     20.1    0.91     -9      0      0      0      0    75.0    75.0      0     0.82      2.6      2.6      2.6   100    17.7    17.098    63.0   10.772  215.439      98        1.55    0.000    0.000     257.9    195.0    0.91   195.0     374.9     201.2     177.3     140.4     119.8      91.4    0.000     0.000     0.000     0.000     0.000    0.91     0.00    0.00      0   -9.90   -9.00       15.7       22.0       22.0       22.0       22.0       22.0       22.0       22.0       22.0       22.0       22.0       22.0        0.0        0.0        0.0        0.0        0.0        0.0        0.0        0.0        0.0        0.0        0.0        0.0      2.2       3.2      26.1      29.2      32.2    363.88
     7     7  1997   151     4     254.1     1.2      0.0    0.0    1.2    0.0      0.1      0.0   -9.90      0.8      0.8    100      4.0      4.0   100      4.8     4.8     100     20.3    0.91     -9      0      0      0      0    75.0    75.0      0     0.82      4.0      4.0      4.0   100    17.7    17.243    63.0   10.863  217.267      98        1.56    0.000    0.000     254.1    191.3    0.91   191.3     374.9     201.2     184.4     146.1     124.2      91.4    0.000     0.000     0.000     0.000     0.000    0.91     0.00    0.00      0   -9.90   -9.00       12.1       22.0       22.0       22.0       22.0       22.0       22.0       22.0       22.0       22.0       22.0       22.0        0.0        0.0        0.0        0.0        0.0        0.0        0.0        0.0        0.0        0.0        0.0        0.0      1.2       4.9      26.6      31.4      36.1    363.88
     8     7  1997   152     4     262.2    11.6      0.0    0.0   11.6    0.0      0.0      0.0   -9.90      0.6      0.6    100      2.9      2.9   100      3.5     3.5     100     20.2    0.91     -9      0      0      0      0    75.0    75.0      0     0.82      2.9      2.9      2.9   100    17.7    17.388    63.0   10.955  219.094      98        1.56    0.000    0.000     262.2    199.4    0.91   199.4     374.9     201.2     178.7     141.6     120.7      91.4    0.000     0.000     0.000     0.000     0.000    0.91     0.00    0.00      0   -9.90   -9.00       20.2       22.0       22.0       22.0       22.0       22.0       22.0       22.0       22.0       22.0       22.0       22.0        0.0        0.0        0.0        0.0        0.0        0.0        0.0        0.0        0.0        0.0        0.0        0.0     11.6       3.5      26.4      29.5      32.6    363.88
     9     7  1997   153     4     263.4     5.2      0.0    0.0    5.2    0.0      0.0      0.0   -9.90      0.7      0.7    100      3.4      3.4   100      4.0     4.0     100     19.9    0.91     -9      0      0      0      0    75.0    75.0      0     0.82      3.4      3.4      3.4   100    17.7    17.533    63.0   11.046  220.919      98        1.57    0.000    0.000     263.4    200.6    0.91   200.6     374.9     201.2     181.1     143.5     122.2      91.4    0.000     0.000     0.000     0.000     0.000    0.91     0.00    0.00      0   -9.90   -9.00       21.4       22.0       22.0       22.0       22.0       22.0       22.0       22.0       22.0       22.0       22.0       22.0        0.0        0.0        0.0        0.0        0.0        0.0        0.0        0.0        0.0        0.0        0.0        0.0      5.2       4.1      25.7      29.8      33.8    363.88
    10     7  1997   154     4     258.1     0.2      0.0    0.0    0.2    0.0      0.0      0.0   -9.90      0.9      0.9     96      4.7      4.7   100      5.6     5.6      99     20.4    0.91     -9      0      0      0      0    75.0    75.0      0     0.82      4.7      4.7      4.7   100    17.7    17.678    63.0   11.137  222.741      98        1.57    0.000    0.000     258.1    195.2    0.91   195.2     374.9     201.2     187.7     148.7     126.2      91.4    0.000     0.000     0.000     0.000     0.000    0.91     0.00    0.00      0   -9.90   -9.00       16.1       22.0       22.0       22.0       22.0       22.0       22.0       22.0       22.0       22.0       22.0       22.0        0.0        0.0        0.0        0.0        0.0        0.0        0.0        0.0        0.0        0.0        0.0        0.0      0.2       5.7      26.9      31.2      35.5    363.88
    11     7  1997   155     4     255.0     1.0      0.0    0.0    1.0    0.0      0.0      0.0   -9.90      0.7      0.7    100      3.4      3.4   100      4.0     4.0     100     20.1    0.91     -9      0      0      0      0    75.0    75.0      0     0.81      3.4      3.4      3.4   100    17.7    17.822    63.0   11.228  224.561      98        1.57    0.000    0.000     255.0    192.2    0.91   192.2     374.9     201.2     181.2     143.5     122.2      91.4    0.000     0.000     0.000     0.000     0.000    0.91     0.00    0.00      0   -9.90   -9.00       13.0       22.0       22.0       22.0       22.0       22.0       22.0       22.0       22.0       22.0       22.0       22.0        0.0        0.0        0.0        0.0        0.0        0.0        0.0        0.0        0.0        0.0        0.0        0.0      1.0       4.2      26.1      29.7      33.3    363.88
    12     7  1997   156     4     252.2     2.6      0.0    0.0    2.6    0.0      0.0      0.0   -9.90      0.9      0.9    100      4.5      4.5   100      5.4     5.4     100     20.6    0.91     -9      0      0      0      0    75.0    75.0      0     0.81      4.5      4.5      4.5   100    17.7    17.967    63.0   11.319  226.379      98        1.57    0.000    0.000     252.2    189.4    0.91   189.4     374.9     201.2     186.9     148.0     125.7      91.4    0.000     0.000     0.000     0.000     0.000    0.91     0.00    0.00      0   -9.90   -9.00       10.2       22.0       22.0       22.0       22.0       22.0       22.0       22.0       22.0       22.0       22.0       22.0        0.0        0.0        0.0        0.0        0.0        0.0        0.0        0.0        0.0        0.0        0.0        0.0      2.6       5.5      27.2      31.4      35.6    363.88
    13     7  1997   157     4     257.8     8.0      0.0    0.0    8.0    0.0      0.0      0.0   -9.90      0.4      0.4    100      2.0      2.0   100      2.4     2.4     100     19.8    0.91     -9      0      0      0      0    75.0    75.0      0     0.81      2.0      2.0      2.0   100    17.7    18.111    63.0   11.410  228.195      98        1.58    0.000    0.000     257.8    195.0    0.91   195.0     374.9     201.2     174.2     138.0     118.0      91.4    0.000     0.000     0.000     0.000     0.000    0.91     0.00    0.00      0   -9.90   -9.00       15.8       22.0       22.0       22.0       22.0       22.0       22.0       22.0       22.0       22.0       22.0       22.0        0.0        0.0        0.0        0.0        0.0        0.0        0.0        0.0        0.0        0.0        0.0        0.0      8.0       2.4      25.6      27.6      29.6    363.88
    14     7  1997   158     4     264.7     8.9      0.0    0.0    8.9    0.0      0.0      0.0   -9.90      0.3      0.3    100      1.7      1.7   100      2.0     2.0     100     19.6    0.91     -9      0      0      0      0    75.0    75.0      0     0.81      1.7      1.7      1.7   100    17.7    18.255    63.0   11.500  230.009      98        1.59    0.000    0.000     264.7    201.9    0.91   201.9     374.9     201.2     172.7     136.8     117.1      91.4    0.000     0.000     0.000     0.000     0.000    0.91     0.00    0.00      0   -9.90   -9.00       22.7       22.0       22.0       22.0       22.0       22.0       22.0       22.0       22.0       22.0       22.0       22.0        0.0        0.0        0.0        0.0        0.0        0.0        0.0        0.0        0.0        0.0        0.0        0.0      8.9       2.1      25.3      26.9      28.5    363.88
    15     7  1997   159     4     269.9     8.2      0.0    0.0    8.1    0.1      0.5      0.0   -9.90      0.4      0.4    100      2.1      2.1   100      2.5     2.5     100     19.6    0.91     -9      0      0      0      0    75.0    75.0      0     0.81      2.1      2.1      2.1   100    17.7    18.398    63.0   11.591  231.821      98        1.59    0.000    0.000     269.9    207.1    0.91   207.1     374.9     201.2     174.6     138.3     118.2      91.4    0.000     0.000     0.000     0.000     0.000    0.91     0.00    0.00      0   -9.90   -9.00       27.7       22.1       22.0       22.0       22.0       22.0       22.0       22.0       22.0       22.0       22.0       22.0        0.0        0.0        0.0        0.0        0.0        0.0        0.0        0.0        0.0        0.0        0.0        0.0      8.2       2.5      25.1      27.6      30.1    363.88
    16     7  1997   160     4     265.1     2.8      0.0    0.0    2.8    0.0      4.3      0.0   -9.90      0.5      0.5    100      2.7      2.7   100      3.3     3.3     100     19.8    0.91     -9      0      0      0      0    75.0    75.0      0     0.81      2.7      2.7      2.7   100    17.7    18.542    63.0   11.681  233.630      98        1.60    0.000    0.000     265.1    202.2    0.91   202.2     374.9     201.2     178.0     141.0     120.3      91.4    0.000     0.000     0.000     0.000     0.000    0.91     0.00    0.00      0   -9.90   -9.00       21.8       22.4       22.2       22.2       22.1       22.1       22.1       22.1       22.1       22.1       22.0       22.0        0.0        0.0        0.0        0.0        0.0        0.0        0.0        0.0        0.0        0.0        0.0        0.0      2.8       3.4      25.5      28.4      31.2    363.88
    17     7  1997   161     4     260.7     0.1      0.0    0.0    0.1    0.0      1.2      0.0   -9.90      0.6      0.5     98      2.8      2.8   100      3.4     3.4     100     19.9    0.91     -9      0      0      0      0    75.0    75.0      0     0.81      2.8      2.8      2.8   100    17.7    18.685    63.0   11.772  235.437      98        1.60    0.000    0.000     260.7    197.8    0.91   197.8     374.9     201.2     178.5     141.4     120.6      91.4    0.000     0.000     0.000     0.000     0.000    0.91     0.00    0.00      0   -9.90   -9.00       18.5       22.0       22.0       22.0       22.0       22.0       22.0       22.0       22.0       22.0       22.0       22.0        0.0        0.0        0.0        0.0        0.0        0.0        0.0        0.0        0.0        0.0        0.0        0.0      0.1       3.5      25.8      28.6      31.4    363.88
    18     7  1997   162     4     257.7     1.1      0.0    0.0    1.1    0.0      0.2      0.0   -9.90      0.6      0.6    100      3.3      3.3   100      3.9     3.9     100     20.5    0.91     -9      0      0      0      0    75.0    75.0      0     0.81      3.3      3.3      3.3   100    17.7    18.829    63.0   11.862  237.242      98        1.61    0.000    0.000     257.7    194.9    0.91   194.9     374.9     201.2     180.7     143.2     121.9      91.4    0.000     0.000     0.000     0.000     0.000    0.91     0.00    0.00      0   -9.90   -9.00       15.7       22.0       22.0       22.0       22.0       22.0       22.0       22.0       22.0       22.0       22.0       22.0        0.0        0.0        0.0        0.0        0.0        0.0        0.0        0.0        0.0        0.0        0.0        0.0      1.1       4.0      27.0      29.4      31.9    363.88
    19     7  1997   163     4     255.1     0.5      0.0    0.0    0.5    0.0      0.0      0.0   -9.90      0.5      0.5    100      2.6      2.6   100      3.1     3.1     100     20.1    0.91     -9      0      0      0      0    75.0    75.0      0     0.81      2.6      2.6      2.6   100    17.7    18.972    63.0   11.952  239.045      98        1.61    0.000    0.000     255.1    192.3    0.91   192.3     374.9     201.2     177.4     140.5     119.9      91.4    0.000     0.000     0.000     0.000     0.000    0.91     0.00    0.00      0   -9.90   -9.00       13.1       22.0       22.0       22.0       22.0       22.0       22.0       22.0       22.0       22.0       22.0       22.0        0.0        0.0        0.0        0.0        0.0        0.0        0.0        0.0        0.0        0.0        0.0        0.0      0.5       3.2      26.1      28.1      30.0    363.88
    20     7  1997   164     4     251.4     0.1      0.0    0.0    0.1    0.0      0.0      0.0   -9.90      0.7      0.5     69      3.3      3.3   100      4.0     3.8      95     19.9    0.91     -9      0      0      0      0    75.0    75.0      0     0.81      3.3      3.3      3.3   100    17.7    19.115    63.0   12.042  240.846      98        1.62    0.000    0.000     251.4    188.6    0.91   188.6     374.9     201.2     181.1     143.5     122.2      91.4    0.000     0.000     0.000     0.000     0.000    0.91     0.00    0.00      0   -9.90   -9.00        9.4       22.0       22.0       22.0       22.0       22.0       22.0       22.0       22.0       22.0       22.0       22.0        0.0        0.0        0.0        0.0        0.0        0.0        0.0        0.0        0.0        0.0        0.0        0.0      0.1       4.1      25.8      29.4      33.0    363.88
    21     7  1997   165     4     249.0     2.6      0.0    0.0    2.6    0.0      0.0      0.0   -9.90      0.8      0.8    100      4.2      4.2   100      5.0     5.0     100     20.4    0.91     -9      0      0      0      0    75.0    75.0      0     0.80      4.2      4.2      4.2   100    17.7    19.258    63.0   12.132  242.645      98        1.62    0.000    0.000     249.0    186.2    0.91   186.2     374.9     201.2     185.5     146.9     124.8      91.4    0.000     0.000     0.000     0.000     0.000    0.91     0.00    0.00      0   -9.90   -9.00        8.8       20.2       22.0       22.0       22.0       22.0       22.0       22.0       22.0       22.0       22.0       22.0        0.0        0.0        0.0        0.0        0.0        0.0        0.0        0.0        0.0        0.0        0.0        0.0      2.6       5.2      26.9      31.2      35.5    363.88
    22     7  1997   166     4     243.9     0.0      0.0    0.0    0.0    0.0      0.0      0.0   -9.90      0.9      0.9    100      4.3      4.3   100      5.1     5.1     100     20.6    0.91     -9      0     -9      0      0    74.7    74.7      0     0.80      4.3      4.3      4.3   100    17.7    19.399    63.0   12.221  244.430      98        1.62    0.000    0.000     243.9    181.0    0.91   181.0     374.9     201.2     186.1     147.4     125.2      91.4    0.000     0.000     0.000     0.000     0.000    0.91     0.00    0.00      0   -9.90   -9.00        7.9       16.0       22.0       22.0       22.0       22.0       22.0       22.0       22.0       22.0       22.0       22.0        0.0        0.0        0.0        0.0        0.0        0.0        0.0        0.0        0.0        0.0        0.0        0.0      0.0       5.3      27.3      31.2      35.2    363.88
    23     7  1997   167     4     238.1     0.1      0.0    0.0    0.1    0.0      0.0      0.0   -9.90      1.2      0.2     17      5.6      5.6   100      6.8     5.8      86     20.4    0.91     -9      0     -9      0      0    74.4    74.4      0     0.79      5.6      5.6      5.6   100    17.7    19.540    63.0   12.310  246.199      98        1.62    0.000    0.000     238.1    175.3    0.91   175.3     374.9     201.2     193.4     153.2     129.6      91.4    0.000     0.000     0.000     0.000     0.000    0.91     0.00    0.00      0   -9.90   -9.00        7.8       11.4       20.9       22.0       22.0       22.0       22.0       22.0       22.0       22.0       22.0       22.0        0.0        0.0        0.0        0.0        0.0        0.0        0.0        0.0        0.0        0.0        0.0        0.0      0.1       7.1      26.9      31.8      36.6    363.88
    24     7  1997   168     4     232.4     0.0      0.0    0.0    0.0    0.0      0.0      0.0   -9.90      1.2      0.1      5      5.7      5.7   100      6.9     5.7      83     21.0    0.91     -9      0     -9      0      0    74.0    74.0      0     0.78      5.7      5.7      5.7   100    17.7    19.679    63.0   12.398  247.952      98        1.62    0.000    0.000     232.4    169.6    0.91   169.6     374.9     201.2     193.8     153.5     129.9      91.4    0.000     0.000     0.000     0.000     0.000    0.91     0.00    0.00      0   -9.90   -9.00        7.8        9.2       17.5       22.0       22.0       22.0       22.0       22.0       22.0       22.0       22.0       22.0        0.0        0.0        0.0        0.0        0.0        0.0        0.0        0.0        0.0        0.0        0.0        0.0      0.0       7.2      28.0      32.4      36.7    363.88
    25     7  1997   169     4     226.8     1.1      0.0    0.0    1.1    0.0      0.0      0.0   -9.90      1.2      1.1     90      5.6      5.6   100      6.8     6.7      98     20.9    0.91     -9      0     -9      0      0    73.6    73.6      0     0.78      5.6      5.6      5.6   100    17.7    19.816    63.0   12.484  249.687      98        1.61    0.000    0.000     226.8    164.0    0.91   164.0     374.9     201.2     193.9     153.6     129.9      91.4    0.000     0.000     0.000     0.000     0.000    0.91     0.00    0.00      0   -9.90   -9.00        7.8        9.2       13.4       20.5       22.0       22.0       22.0       22.0       22.0       22.0       22.0       22.0        0.0        0.0        0.0        0.0        0.0        0.0        0.0        0.0        0.0        0.0        0.0        0.0      1.1       7.2      27.7      32.7      37.7    363.88
    26     7  1997   170     4     264.7     4.6     39.5    0.0   44.1    0.0      0.0      0.0   -9.90      1.1      1.1    100      5.0      5.0   100      6.1     6.1     100     20.8    0.91     -9      0     -9      0      0    73.2    73.2      0     0.77      5.0      5.0      5.0   100    17.7    19.953    63.0   12.570  251.405      98        1.61    0.000    0.000     264.7    201.9    0.91   201.9     374.9     201.2     191.0     151.3     128.2      91.4    0.000     0.000     0.000     0.000     0.000    0.91     0.00    0.00      0   -9.90   -9.00       34.9       20.0       13.4       20.5       22.0       22.0       22.0       22.0       22.0       22.0       22.0       22.0        0.0        0.0        0.0        0.0        0.0        0.0        0.0        0.0        0.0        0.0        0.0        0.0      4.6       6.5      27.5      31.9      36.4    363.88
    27     7  1997    -9     0     261.6     0.3      0.0    0.0    0.3    0.0      0.0      0.0   -9.90      4.3      3.4     79      0.0      0.0   100      4.3     3.4      79     21.0    0.91     -9     -9     -9      0     -9     0.0     0.0      0    -9.00      0.0      0.0      0.0   100    17.7    19.953    63.0   12.570  251.405      98        1.61    0.000    0.000     261.6    198.8    0.91   198.8     374.9     201.2     191.0     153.2     128.2      91.4    0.000     0.000     0.000     0.000     0.000    0.91     0.00    0.00      0   -9.90   -9.00       19.0       22.4       22.3       21.8       22.0       22.0       22.0       22.0       22.0       22.0       22.0       22.0        0.0        0.0        0.0        0.0        0.0        0.0        0.0        0.0        0.0        0.0        0.0        0.0      0.3       7.1      28.4      31.6      34.7    363.88
