AquaCrop 7.2 (August 2024) - Output created on (date) : 27-12-2024   at (time) : 21:00:28

    RunNr     Day1   Month1    Year1     Rain      ETo       GD     CO2      Irri   Infilt   Runoff    Drain   Upflow        E     E/Ex       Tr      TrW   Tr/Trx    SaltIn   SaltOut    SaltUp  SaltProf     Cycle   SaltStr  FertStr  WeedStr  TempStr   ExpStr   StoStr  BioMass  Brelative   HI    Y(dry)  Y(fresh)    WPet      Bin     Bout     DayN   MonthN    YearN
                                           mm       mm  degC.day    ppm        mm       mm       mm       mm       mm       mm        %       mm       mm        %    ton/ha    ton/ha    ton/ha    ton/ha      days       %        %        %        %        %        %    ton/ha        %       %    ton/ha   ton/ha    kg/m3   ton/ha   ton/ha
      Day        9        1     1997      0.7      3.3     18.0   363.88      0.0      0.7      0.0      0.0      0.0      3.1       85      0.0      0.0       -9     0.000     0.000     0.000     0.000       -9        0        0        0        0        0        0     0.000       -9     -9.9       -9       -9       -9       -9    0.000    0.000        9        1     1997  idealPro.PRO
      Day       10        1     1997      0.8      4.3     18.4   363.88      0.0      0.8      0.0      0.0      0.0      3.8       80      0.0      0.0       -9     0.000     0.000     0.000     0.000       -9        0        0        0        0        0        0     0.000       -9     -9.9       -9       -9       -9       -9    0.000    0.000       10        1     1997  idealPro.PRO
      Day       11        1     1997      0.0      4.7     18.4   363.88      0.0      0.0      0.0      0.0      0.0      2.4       47      0.0      0.0       -9     0.000     0.000     0.000     0.000       -9        0        0        0        0        0        0     0.000       -9     -9.9       -9       -9       -9       -9    0.000    0.000       11        1     1997  idealPro.PRO
      Day       12        1     1997      0.0      4.7     17.4   363.88      0.0      0.0      0.0      0.0      0.0      1.7       32      0.0      0.0       -9     0.000     0.000     0.000     0.000       -9        0        0        0        0        0        0     0.000       -9     -9.9       -9       -9       -9       -9    0.000    0.000       12        1     1997  idealPro.PRO
      Day       13        1     1997      0.0      5.4     17.6   363.88     14.7     14.7      0.0      0.0      0.0      6.0      100      0.0      0.0       -9     0.000     0.000     0.000     0.000       -9        0        0        0        0        0        0     0.000       -9     -9.9       -9       -9       -9       -9    0.000    0.000       13        1     1997  idealPro.PRO
      Day       14        1     1997      0.0      5.6     17.0   363.88      0.0      0.0      0.0      0.0      0.0      4.6       76      0.0      0.0       -9     0.000     0.000     0.000     0.000       -9        0        0        0        0        0        0     0.000       -9     -9.9       -9       -9       -9       -9    0.000    0.000       14        1     1997  idealPro.PRO
      Day       15        1     1997      0.0      4.4     15.9   363.88      0.0      0.0      0.0      0.0      0.0      2.1       43      0.0      0.0       -9     0.000     0.000     0.000     0.000       -9        0        0        0        0        0        0     0.000       -9     -9.9       -9       -9       -9       -9    0.000    0.000       15        1     1997  idealPro.PRO
      Day       16        1     1997      0.0      4.0     15.2   363.88      0.0      0.0      0.0      0.0      0.0      1.4       32      0.0      0.0       -9     0.000     0.000     0.000     0.000       -9        0        0        0        0        0        0     0.000       -9     -9.9       -9       -9       -9       -9    0.000    0.000       16        1     1997  idealPro.PRO
      Day       17        1     1997      0.0      4.0     15.6   363.88      0.0      0.0      0.0      0.0      0.0      1.1       25      0.0      0.0       -9     0.000     0.000     0.000     0.000       -9        0        0        0        0        0        0     0.000       -9     -9.9       -9       -9       -9       -9    0.000    0.000       17        1     1997  idealPro.PRO
      Day       18        1     1997      0.0      3.8     15.3   363.88      0.0      0.0      0.0      0.0      0.0      0.9       21      0.1      0.1      100     0.000     0.000     0.000     0.000        1        0        0        0        0        0        0     0.002      100      0.0       -9       -9       -9       -9    0.000    0.000       18        1     1997  idealPro.PRO
      Day       19        1     1997      0.0      4.5     16.2   363.88      0.0      0.0      0.0      0.0      0.0      0.9       18      0.1      0.1      100     0.000     0.000     0.000     0.000        2        0        0        0        0        5        0     0.003       98      0.0       -9       -9       -9       -9    0.000    0.000       19        1     1997  idealPro.PRO
      Day       20        1     1997      0.0      4.9     15.8   363.88     16.9     16.9      0.0      0.0      0.0      5.3      100      0.1      0.1      100     0.000     0.000     0.000     0.000        3        0        0        0        0        3        0     0.003       99      0.0       -9       -9       -9       -9    0.000    0.000       20        1     1997  idealPro.PRO
      Day       21        1     1997      0.0      4.7     15.7   363.88      0.0      0.0      0.0      0.0      0.0      4.3       85      0.1      0.1      100     0.000     0.000     0.000     0.000        4        0        0        0        0        2        0     0.004       99      0.0       -9       -9       -9       -9    0.000    0.000       21        1     1997  idealPro.PRO
      Day       22        1     1997      0.0      6.2     16.8   363.88      0.0      0.0      0.0      0.0      0.0      3.1       46      0.2      0.2      100     0.000     0.000     0.000     0.000        5        0        0        0        0        2        0     0.005       98      0.0       -9       -9       -9       -9    0.000    0.000       22        1     1997  idealPro.PRO
      Day       23        1     1997      0.0      6.1     16.3   363.88     15.0     15.0      0.0      0.0      0.0      6.5      100      0.2      0.2      100     0.000     0.000     0.000     0.000        6        0        0        0        0        2        0     0.005       98      0.0       -9       -9       -9       -9    0.000    0.000       23        1     1997  idealPro.PRO
      Day       24        1     1997      0.0      5.2     16.0   363.88      0.0      0.0      0.0      0.1      0.0      4.3       77      0.2      0.2      100     0.000     0.000     0.000     0.000        7        0        0        0        0        2        0     0.006       98      0.0       -9       -9       -9       -9    0.000    0.000       24        1     1997  idealPro.PRO
      Day       25        1     1997      0.0      5.0     15.6   363.88      0.0      0.0      0.0      0.0      0.0      2.3       44      0.2      0.2      100     0.000     0.000     0.000     0.000        8        0        0        0        0        1        0     0.007       98      0.0       -9       -9       -9       -9    0.000    0.000       25        1     1997  idealPro.PRO
      Day       26        1     1997      0.0      5.3     16.2   363.88      0.0      0.0      0.0      0.0      0.0      1.7       30      0.3      0.3      100     0.000     0.000     0.000     0.000        9        0        0        0        0        1        0     0.009       98      0.0       -9       -9       -9       -9    0.000    0.000       26        1     1997  idealPro.PRO
      Day       27        1     1997      0.0      5.5     15.8   363.88      0.0      0.0      0.0      0.0      0.0      1.3       22      0.3      0.3      100     0.000     0.000     0.000     0.000       10        0        0        0        0        2        0     0.010       97      0.0       -9       -9       -9       -9    0.000    0.000       27        1     1997  idealPro.PRO
      Day       28        1     1997      0.0      5.8     16.9   363.88     16.5     16.5      0.0      0.0      0.0      6.0      100      0.4      0.4      100     0.000     0.000     0.000     0.000       11        0        0        0        0        2        0     0.012       97      0.0       -9       -9       -9       -9    0.000    0.000       28        1     1997  idealPro.PRO
      Day       29        1     1997      0.0      5.4     16.8   363.88      0.0      0.0      0.0      0.0      0.0      4.4       79      0.4      0.4      100     0.000     0.000     0.000     0.000       12        0        0        0        0        2        0     0.014       97      0.0       -9       -9       -9       -9    0.000    0.000       29        1     1997  idealPro.PRO
      Day       30        1     1997      0.0      4.6     16.6   363.88      0.0      0.0      0.0      0.0      0.0      2.0       44      0.4      0.4      100     0.000     0.000     0.000     0.000       13        0        0        0        0        1        0     0.016       97      0.0       -9       -9       -9       -9    0.000    0.000       30        1     1997  idealPro.PRO
      Day       31        1     1997      0.0      4.1     16.5   363.88      0.0      0.0      0.0      0.0      0.0      1.2       31      0.4      0.4      100     0.000     0.000     0.000     0.000       14        0        0        0        0        1        0     0.019       97      0.0       -9       -9       -9       -9    0.000    0.000       31        1     1997  idealPro.PRO
      Day        1        2     1997      0.0      4.7     16.5   363.88      0.0      0.0      0.0      0.0      0.0      1.1       23      0.6      0.6      100     0.000     0.000     0.000     0.000       15        0        0        0        0        2        0     0.022       97      0.0       -9       -9       -9       -9    0.000    0.000        1        2     1997  idealPro.PRO
      Day        2        2     1997      0.0      5.7     17.0   363.88      0.0      0.0      0.0      0.0      0.0      0.9       17      0.8      0.8      100     0.000     0.000     0.000     0.000       16        0        0        0        0        2        0     0.025       95      0.0       -9       -9       -9       -9    0.000    0.000        2        2     1997  idealPro.PRO
      Day        3        2     1997      0.0      4.9     17.1   363.88     18.9     18.9      0.0      0.0      0.0      4.5      100      0.8      0.8      100     0.000     0.000     0.000     0.000       17        0        0        0        0        2        0     0.029       95      0.0       -9       -9       -9       -9    0.000    0.000        3        2     1997  idealPro.PRO
      Day        4        2     1997      0.0      5.5     17.9   363.88      0.0      0.0      0.0      0.6      0.0      4.6       92      1.1      1.1      100     0.000     0.000     0.000     0.000       18        0        0        0        0        2        0     0.034       95      0.0       -9       -9       -9       -9    0.000    0.000        4        2     1997  idealPro.PRO
      Day        5        2     1997      0.0      5.4     17.6   363.88      0.0      0.0      0.0      0.2      0.0      2.2       47      1.2      1.2      100     0.000     0.000     0.000     0.000       19        0        0        0        0        2        0     0.039       95      0.0       -9       -9       -9       -9    0.000    0.000        5        2     1997  idealPro.PRO
      Day        6        2     1997      0.0      5.9     17.8   363.88      0.0      0.0      0.0      0.0      0.0      1.4       28      1.5      1.5      100     0.000     0.000     0.000     0.000       20        0        0        0        0        2        0     0.045       95      0.0       -9       -9       -9       -9    0.000    0.000        6        2     1997  idealPro.PRO
      Day        7        2     1997      0.0      5.8     17.5   363.88     18.2     18.2      0.0      0.0      0.0      4.6      100      1.7      1.7      100     0.000     0.000     0.000     0.000       21        0        0        0        0        2        0     0.052       95      0.0       -9       -9       -9       -9    0.000    0.000        7        2     1997  idealPro.PRO
      Day        8        2     1997      0.0      5.8     16.4   363.88      0.0      0.0      0.0      0.0      0.0      4.1       94      2.0      2.0      100     0.000     0.000     0.000     0.000       22        0        0        0        0        2        0     0.060       95      0.0       -9       -9       -9       -9    0.000    0.000        8        2     1997  idealPro.PRO
      Day        9        2     1997      0.0      6.2     17.2   363.88      0.0      0.0      0.0      0.0      0.0      1.9       44      2.4      2.4      100     0.000     0.000     0.000     0.000       23        0        0        0        0        2        0     0.069       95      0.0       -9       -9       -9       -9    0.000    0.000        9        2     1997  idealPro.PRO
      Day       10        2     1997      0.0      6.0     16.2   363.88     17.1     17.1      0.0      0.0      0.0      3.8      100      2.7      2.7      100     0.000     0.000     0.000     0.000       24        0        0        0        0        2        0     0.079       95      0.0       -9       -9       -9       -9    0.000    0.000       10        2     1997  idealPro.PRO
      Day       11        2     1997      0.0      5.3     16.0   363.88      0.0      0.0      0.0      0.2      0.0      3.0      100      2.7      2.7      100     0.000     0.000     0.000     0.000       25        0        0        0        0        2        0     0.090       95      0.0       -9       -9       -9       -9    0.000    0.000       11        2     1997  idealPro.PRO
      Day       12        2     1997      0.0      6.2     17.0   363.88      0.0      0.0      0.0      0.1      0.0      2.5       81      3.6      3.6      100     0.000     0.000     0.000     0.000       26        0        0        0        0        1        0     0.102       96      0.0       -9       -9       -9       -9    0.000    0.000       12        2     1997  idealPro.PRO
      Day       13        2     1997      0.0      6.6     17.4   363.88     18.4     18.4      0.0      0.0      0.0      2.9      100      4.2      4.2      100     0.000     0.000     0.000     0.000       27        0        0        0        0        1        0     0.112       97      0.0       -9       -9       -9       -9    0.000    0.000       13        2     1997  idealPro.PRO
      Day       14        2     1997      0.0      6.2     17.1   363.88      0.0      0.0      0.0      0.0      0.0      2.4      100      4.2      4.2      100     0.000     0.000     0.000     0.000       28        0        0        0        0        1        0     0.120       98      0.0       -9       -9       -9       -9    0.000    0.000       14        2     1997  idealPro.PRO
      Day       15        2     1997      0.0      5.2     16.9   363.88      0.0      0.0      0.0      0.0      0.0      1.8       97      3.7      3.7      100     0.000     0.000     0.000     0.000       29        0        0        0        0        1        0     0.126       98      0.0       -9       -9       -9       -9    0.000    0.000       15        2     1997  idealPro.PRO
      Day       16        2     1997      0.0      5.2     16.9   363.88      0.0      0.0      0.0      0.0      0.0      0.5       27      3.8      3.8      100     0.000     0.000     0.000     0.000       30        0        0        0        0        2        0     0.131       98      0.0       -9       -9       -9       -9    0.000    0.000       16        2     1997  idealPro.PRO
      Day       17        2     1997      0.0      5.8     17.4   363.88     22.3     22.3      0.0      0.0      0.0      1.7      100      4.4      4.4      100     0.000     0.000     0.000     0.000       31        0        0        0        0        1        0     0.136       99      0.0       -9       -9       -9       -9    0.000    0.000       17        2     1997  idealPro.PRO
      Day       18        2     1997      0.0      6.2     16.8   363.88      0.0      0.0      0.0      0.0      0.0      1.7      100      4.9      4.9      100     0.000     0.000     0.000     0.000       32        0        0        0        0        1        0     0.139       99      0.0       -9       -9       -9       -9    0.000    0.000       18        2     1997  idealPro.PRO
      Day       19        2     1997      0.0      5.6     17.2   363.88      0.0      0.0      0.0      0.0      0.0      1.5      100      4.5      4.5      100     0.000     0.000     0.000     0.000       33        0        0        0        0        1        0     0.143       99      0.0       -9       -9       -9       -9    0.000    0.000       19        2     1997  idealPro.PRO
      Day       20        2     1997      0.1      4.3     16.7   363.88      0.0      0.1      0.0      0.0      0.0      0.4       35      3.5      3.5      100     0.000     0.000     0.000     0.000       34        0        0        0        0        2        0     0.145       99      0.0       -9       -9       -9       -9    0.000    0.000       20        2     1997  idealPro.PRO
      Day       21        2     1997      0.2      4.5     17.3   363.88     21.3     21.5      0.0      0.0      0.0      1.0      100      3.7      3.7      100     0.000     0.000     0.000     0.000       35        0        0        0        0        1        0     0.147       99      0.0       -9       -9       -9       -9    0.000    0.000       21        2     1997  idealPro.PRO
      Day       22        2     1997      0.0      5.6     16.4   363.88      0.0      0.0      0.0      0.0      0.0      1.2      100      4.7      4.7      100     0.000     0.000     0.000     0.000       36        0        0        0        0        1        0     0.149       99      0.0       -9       -9       -9       -9    0.000    0.000       22        2     1997  idealPro.PRO
      Day       23        2     1997      0.0      7.4     16.8   363.88      0.0      0.0      0.0      0.0      0.0      1.6      100      6.3      6.3      100     0.000     0.000     0.000     0.000       37        0        0        0        0        1        0     0.150       99      0.0       -9       -9       -9       -9    0.000    0.000       23        2     1997  idealPro.PRO
      Day       24        2     1997      0.0      7.0     16.4   363.88     21.9     21.9      0.0      0.0      0.0      1.4      100      6.0      6.0      100     0.000     0.000     0.000     0.000       38        0        0        0        0        1        0     0.152      100      0.0       -9       -9       -9       -9    0.000    0.000       24        2     1997  idealPro.PRO
      Day       25        2     1997      0.0      5.7     16.3   363.88      0.0      0.0      0.0      0.1      0.0      1.1      100      4.9      4.9      100     0.000     0.000     0.000     0.000       39        0        0        0        0        1        0     0.153      100      0.0       -9       -9       -9       -9    0.000    0.000       25        2     1997  idealPro.PRO
      Day       26        2     1997      0.0      6.1     17.5   363.88      0.0      0.0      0.0      0.0      0.0      1.2      100      5.3      5.3      100     0.000     0.000     0.000     0.000       40        0        0        0        0        1        0     0.154      100      0.0       -9       -9       -9       -9    0.000    0.000       26        2     1997  idealPro.PRO
      Day       27        2     1997      0.0      6.3     18.3   363.88      0.0      0.0      0.0      0.0      0.0      1.2      100      5.5      5.5      100     0.000     0.000     0.000     0.000       41        0        0        0        0        2        0     0.155      100      0.0       -9       -9       -9       -9    0.000    0.000       27        2     1997  idealPro.PRO
      Day       28        2     1997      0.0      6.0     18.3   363.88     25.6     25.6      0.0      0.0      0.0      1.1      100      5.3      5.3      100     0.000     0.000     0.000     0.000       42        0        0        0        0        1        0     0.155      100      0.0       -9       -9       -9       -9    0.000    0.000       28        2     1997  idealPro.PRO
      Day        1        3     1997      0.0      5.6     18.6   363.88      0.0      0.0      0.0      0.0      0.0      1.0      100      4.9      4.9      100     0.000     0.000     0.000     0.000       43        0        0        0        0        1        0     0.156      100      1.5       -9       -9       -9       -9    0.000    0.000        1        3     1997  idealPro.PRO
      Day        2        3     1997      0.0      4.5     18.1   363.88      0.0      0.0      0.0      0.0      0.0      0.8      100      4.0      4.0      100     0.000     0.000     0.000     0.000       44        0        0        0        0        1        0     0.156      100      1.7       -9       -9       -9       -9    0.000    0.000        2        3     1997  idealPro.PRO
      Day        3        3     1997      0.2      4.8     17.4   363.88      0.0      0.2      0.0      0.0      0.0      0.5       60      4.2      4.2      100     0.000     0.000     0.000     0.000       45        0        0        0        0        1        0     0.157      100      2.0       -9       -9       -9       -9    0.000    0.000        3        3     1997  idealPro.PRO
      Day        4        3     1997      0.0      5.5     16.0   363.88      0.0      0.0      0.0      0.0      0.0      0.2       20      4.9      4.9      100     0.000     0.000     0.000     0.000       46        0        0        0        0        2        0     0.157      100      2.3       -9       -9       -9       -9    0.000    0.000        4        3     1997  idealPro.PRO
      Day        5        3     1997      0.0      6.1     15.8   363.88     25.8     25.8      0.0      0.0      0.0      1.0      100      5.4      5.4      100     0.000     0.000     0.000     0.000       47        0        0        0        0        2        0     0.158      100      2.6       -9       -9       -9       -9    0.000    0.000        5        3     1997  idealPro.PRO
      Day        6        3     1997      0.0      6.8     16.2   363.88      0.0      0.0      0.0      0.0      0.0      1.1      100      6.1      6.1      100     0.000     0.000     0.000     0.000       48        0        0        0        0        2        0     0.158      100      2.9       -9       -9       -9       -9    0.000    0.000        6        3     1997  idealPro.PRO
      Day        7        3     1997      0.0      7.2     17.0   363.88      0.0      0.0      0.0      0.0      0.0      1.2      100      6.4      6.4      100     0.000     0.000     0.000     0.000       49        0        0        0        0        2        0     0.158      100      3.4       -9       -9       -9       -9    0.000    0.000        7        3     1997  idealPro.PRO
      Day        8        3     1997      0.0      8.2     17.7   363.88     23.0     23.0      0.0      0.0      0.0      1.4      100      7.3      7.3      100     0.000     0.000     0.000     0.000       50        0        0        0        0        2        0     0.158      100      3.8       -9       -9       -9       -9    0.000    0.000        8        3     1997  idealPro.PRO
      Day        9        3     1997      0.0      7.7     17.4   363.88      0.0      0.0      0.0      0.0      0.0      1.3      100      6.9      6.9      100     0.000     0.000     0.000     0.000       51        0        0        0        0        2        0     0.158      100      4.4       -9       -9       -9       -9    0.000    0.000        9        3     1997  idealPro.PRO
      Day       10        3     1997      0.0      7.6     17.6   363.88      0.0      0.0      0.0      0.0      0.0      1.2      100      6.7      6.7      100     0.000     0.000     0.000     0.000       52        0        0        0        0        2        0     0.158      100      5.0       -9       -9       -9       -9    0.000    0.000       10        3     1997  idealPro.PRO
      Day       11        3     1997      0.0      7.1     17.2   363.88     25.2     25.2      0.0      0.0      0.0      1.2      100      6.4      6.4      100     0.000     0.000     0.000     0.000       53        0        0        0        0        2        0     0.158      100      5.6       -9       -9       -9       -9    0.000    0.000       11        3     1997  idealPro.PRO
      Day       12        3     1997      0.0      7.1     18.0   363.88      0.0      0.0      0.0      0.0      0.0      1.2      100      6.3      6.3      100     0.000     0.000     0.000     0.000       54        0        0        0        0        2        0     0.158      100      6.4       -9       -9       -9       -9    0.000    0.000       12        3     1997  idealPro.PRO
      Day       13        3     1997      0.0      6.0     17.8   363.88      0.0      0.0      0.0      0.0      0.0      1.0      100      5.4      5.4      100     0.000     0.000     0.000     0.000       55        0        0        0        0        2        0     0.158      100      7.2       -9       -9       -9       -9    0.000    0.000       13        3     1997  idealPro.PRO
      Day       14        3     1997      0.0      5.6     17.4   363.88      0.0      0.0      0.0      0.0      0.0      0.9      100      5.0      5.0      100     0.000     0.000     0.000     0.000       56        0        0        0        0        2        0     0.158      100      8.2       -9       -9       -9       -9    0.000    0.000       14        3     1997  idealPro.PRO
      Day       15        3     1997      0.0      5.2     17.0   363.88     25.1     25.1      0.0      0.0      0.0      0.8      100      4.6      4.6      100     0.000     0.000     0.000     0.000       57        0        0        0        0        2        0     0.158      100      9.2       -9       -9       -9       -9    0.000    0.000       15        3     1997  idealPro.PRO
      Day       16        3     1997      0.0      5.2     16.6   363.88      0.0      0.0      0.0      0.0      0.0      0.8      100      4.6      4.6      100     0.000     0.000     0.000     0.000       58        0        0        0        0        2        0     0.158      100     10.4       -9       -9       -9       -9    0.000    0.000       16        3     1997  idealPro.PRO
      Day       17        3     1997      0.0      5.3     17.1   363.88      0.0      0.0      0.0      0.0      0.0      0.9      100      4.7      4.7      100     0.000     0.000     0.000     0.000       59        0        0        0        0        2        0     0.158      100     11.6       -9       -9       -9       -9    0.000    0.000       17        3     1997  idealPro.PRO
      Day       18        3     1997      0.0      5.1     18.0   363.88      0.0      0.0      0.0      0.0      0.0      0.8      100      4.5      4.5      100     0.000     0.000     0.000     0.000       60        0        0        0        0        2        0     0.157      100     12.9       -9       -9       -9       -9    0.000    0.000       18        3     1997  idealPro.PRO
      Day       19        3     1997      0.0      6.0     18.0   363.88      0.0      0.0      0.0      0.0      0.0      1.0      100      5.3      5.3      100     0.000     0.000     0.000     0.000       61        0        0        0        0        2        0     0.157      100     14.3       -9       -9       -9       -9    0.000    0.000       19        3     1997  idealPro.PRO
      Day       20        3     1997      0.0      8.3     17.6   363.88     28.4     28.4      0.0      0.0      0.0      1.3      100      7.3      7.3      100     0.000     0.000     0.000     0.000       62        0        0        0        0        2        0     0.157      100     15.6       -9       -9       -9       -9    0.000    0.000       20        3     1997  idealPro.PRO
      Day       21        3     1997      0.0      7.5     18.2   363.88      0.0      0.0      0.0      0.0      0.0      1.2      100      6.7      6.7      100     0.000     0.000     0.000     0.000       63        0        0        0        0        2        0     0.157      100     16.9       -9       -9       -9       -9    0.000    0.000       21        3     1997  idealPro.PRO
      Day       22        3     1997      0.0      5.7     18.1   363.88      0.0      0.0      0.0      0.0      0.0      0.9      100      5.1      5.1      100     0.000     0.000     0.000     0.000       64        0        0        0        0        2        0     0.157      100     18.2       -9       -9       -9       -9    0.000    0.000       22        3     1997  idealPro.PRO
      Day       23        3     1997      0.0      5.7     17.4   363.88     22.3     22.3      0.0      0.0      0.0      0.9      100      5.1      5.1      100     0.000     0.000     0.000     0.000       65        0        0        0        0        2        0     0.157      100     19.5       -9       -9       -9       -9    0.000    0.000       23        3     1997  idealPro.PRO
      Day       24        3     1997      0.0      5.3     17.7   363.88      0.0      0.0      0.0      0.0      0.0      0.9      100      4.7      4.7      100     0.000     0.000     0.000     0.000       66        0        0        0        0        2        0     0.156      100     20.8       -9       -9       -9       -9    0.000    0.000       24        3     1997  idealPro.PRO
      Day       25        3     1997      0.0      5.6     18.2   363.88      0.0      0.0      0.0      0.0      0.0      0.9      100      4.9      4.9      100     0.000     0.000     0.000     0.000       67        0        0        0        0        2        0     0.156      100     22.2       -9       -9       -9       -9    0.000    0.000       25        3     1997  idealPro.PRO
      Day       26        3     1997      0.0      5.8     17.6   363.88      0.0      0.0      0.0      0.0      0.0      0.9      100      5.1      5.1      100     0.000     0.000     0.000     0.000       68        0        0        0        0        2        0     0.156      100     23.5       -9       -9       -9       -9    0.000    0.000       26        3     1997  idealPro.PRO
      Day       27        3     1997      0.0      5.2     18.1   363.88     23.6     23.6      0.0      0.0      0.0      0.8      100      4.6      4.6      100     0.000     0.000     0.000     0.000       69        0        0        0        0        2        0     0.156      100     24.8       -9       -9       -9       -9    0.000    0.000       27        3     1997  idealPro.PRO
      Day       28        3     1997      0.0      4.9     18.4   363.88      0.0      0.0      0.0      0.1      0.0      0.8      100      4.3      4.3      100     0.000     0.000     0.000     0.000       70        0        0        0        0        2        0     0.156      100     26.1       -9       -9       -9       -9    0.000    0.000       28        3     1997  idealPro.PRO
      Day       29        3     1997      0.0      5.7     18.7   363.88      0.0      0.0      0.0      0.1      0.0      0.9      100      5.0      5.0      100     0.000     0.000     0.000     0.000       71        0        0        0        0        2        0     0.156      100     27.4       -9       -9       -9       -9    0.000    0.000       29        3     1997  idealPro.PRO
      Day       30        3     1997      0.0      6.1     18.8   363.88      0.0      0.0      0.0      0.0      0.0      1.0      100      5.3      5.3      100     0.000     0.000     0.000     0.000       72        0        0        0        0        2        0     0.154      100     28.7       -9       -9       -9       -9    0.000    0.000       30        3     1997  idealPro.PRO
      Day       31        3     1997      0.0      7.0     18.8   363.88     23.3     23.3      0.0      0.0      0.0      1.1      100      6.0      6.0      100     0.000     0.000     0.000     0.000       73        0        0        0        0        2        0     0.153      100     30.1       -9       -9       -9       -9    0.000    0.000       31        3     1997  idealPro.PRO
      Day        1        4     1997      0.0      6.1     19.2   363.88      0.0      0.0      0.0      0.0      0.0      1.0      100      5.2      5.2      100     0.000     0.000     0.000     0.000       74        0        0        0        0        2        0     0.152      100     31.4       -9       -9       -9       -9    0.000    0.000        1        4     1997  idealPro.PRO
      Day        2        4     1997      0.0      5.8     17.7   363.88      0.0      0.0      0.0      0.0      0.0      1.0      100      4.9      4.9      100     0.000     0.000     0.000     0.000       75        0        0        0        0        2        0     0.150      100     32.7       -9       -9       -9       -9    0.000    0.000        2        4     1997  idealPro.PRO
      Day        3        4     1997      0.0      5.7     17.8   363.88      0.0      0.0      0.0      0.0      0.0      1.0      100      4.8      4.8      100     0.000     0.000     0.000     0.000       76        0        0        0        0        2        0     0.149      100     34.0       -9       -9       -9       -9    0.000    0.000        3        4     1997  idealPro.PRO
      Day        4        4     1997      0.0      6.1     18.2   363.88      0.0      0.0      0.0      0.0      0.0      2.9       80      0.0      0.0       -9     0.000     0.000     0.000     0.000       76        0        0        0        0        2        0     0.000       -9     35.0       -9       -9       -9       -9    0.000    0.000        4        4     1997  idealPro.PRO
   Tot(1)        9        1     1997      2.0    486.0   1477.4   363.88    423.5    425.5      0.0      1.7      0.0    163.7       70    281.7    281.7      100     0.000     0.000     0.000     0.000       76        0        0        0        0        2        0     8.346       99     35.0    2.921   58.423     0.66    0.000    0.000        4        4     1997  idealPro.PRO
