AquaCrop 7.2 (August 2024) - Output created on (date) : 12-12-2024   at (time) : 09:51:27

   Day Month  Year   DAP Stage   WC(1.20)   Rain     Irri   Surf   Infilt   RO    Drain       CR    Zgwt       Ex       E     E/Ex     Trx       Tr  Tr/Trx    ETx      ET  ET/ETx      GD       Z     StExp  StSto  StSen StSalt StWeed   CC      CCw     StTr  Kc(Tr)     Trx       Tr      TrW  Tr/Trx   WP    Biomass     HI    Y(dry)  Y(fresh)  Brelative    WPet      Bin     Bout  WC(1.20) Wr(0.61)     Z       Wr    Wr(SAT)    Wr(FC)   Wr(exp)   Wr(sto)   Wr(sen)   Wr(PWP)    SaltIn    SaltOut   SaltUp   Salt(1.20)  SaltZ     Z       ECe    ECsw   StSalt  Zgwt    ECgw       WC01       WC 2       WC 3       WC 4       WC 5       WC 6       WC 7       WC 8       WC 9       WC10       WC11       WC12      ECe01      ECe 2      ECe 3      ECe 4      ECe 5      ECe 6      ECe 7      ECe 8      ECe 9      ECe10      ECe11      ECe12     Rain       ETo      Tmin      Tavg      Tmax      CO2
                                      mm      mm       mm     mm     mm     mm       mm       mm      m        mm       mm     %        mm       mm    %        mm      mm       %  degC-day     m       %      %      %      %      %      %       %       %       -        mm       mm       mm    %     g/m2    ton/ha      %    ton/ha   ton/ha       %       kg/m3   ton/ha   ton/ha      mm       mm       m       mm        mm        mm        mm        mm        mm         mm    ton/ha    ton/ha    ton/ha    ton/ha    ton/ha     m      dS/m    dS/m      %     m      dS/m       0.05       0.15       0.25       0.35       0.45       0.55       0.65       0.75       0.85       0.95       1.05       1.15       0.05       0.15       0.25       0.35       0.45       0.55       0.65       0.75       0.85       0.95       1.05       1.15       mm        mm     degC      degC      degC       ppm
    22     1  1996     1     1     260.1     0.0      0.0    0.0    0.0    0.0      0.0      0.0   -9.90      5.3      3.9     72      0.0      0.0   100      5.3     3.9      72     15.6    0.30     -9     -9     -9      0     -9     0.0     0.0      0    -9.00      0.0      0.0      0.0   100     0.0     0.000    -9.9    0.000    0.000      -9        0.00    0.000    0.000     260.1    130.3    0.30    62.1     123.0      66.0      60.6      47.8      40.8      30.0    0.000     0.000     0.000     0.000     0.000    0.30     0.00    0.00      0   -9.90   -9.00       18.1       22.0       22.0       22.0       22.0       22.0       22.0       22.0       22.0       22.0       22.0       22.0        0.0        0.0        0.0        0.0        0.0        0.0        0.0        0.0        0.0        0.0        0.0        0.0      0.0       4.8      18.1      22.6      27.0    362.74
    23     1  1996     2     1     257.9     0.0      0.0    0.0    0.0    0.0      0.0      0.0   -9.90      5.0      2.2     44      0.0      0.0   100      5.0     2.2      44     14.3    0.30     -9     -9     -9      0     -9     0.0     0.0      0    -9.00      0.0      0.0      0.0   100     0.0     0.000    -9.9    0.000    0.000      -9        0.00    0.000    0.000     257.9    128.0    0.30    59.9     123.0      66.0      60.6      47.5      40.8      30.0    0.000     0.000     0.000     0.000     0.000    0.30     0.00    0.00      0   -9.90   -9.00       15.9       22.0       22.0       22.0       22.0       22.0       22.0       22.0       22.0       22.0       22.0       22.0        0.0        0.0        0.0        0.0        0.0        0.0        0.0        0.0        0.0        0.0        0.0        0.0      0.0       4.5      16.8      21.3      25.8    362.74
    24     1  1996     3     1     256.5     0.0      0.0    0.0    0.0    0.0      0.0      0.0   -9.90      4.5      1.5     33      0.0      0.0   100      4.5     1.5      33     14.2    0.30     -9     -9     -9      0     -9     0.0     0.0      0    -9.00      0.0      0.0      0.0   100     0.0     0.000    -9.9    0.000    0.000      -9        0.00    0.000    0.000     256.5    126.6    0.30    58.5     123.0      66.0      60.6      47.0      40.8      30.0    0.000     0.000     0.000     0.000     0.000    0.30     0.00    0.00      0   -9.90   -9.00       14.5       22.0       22.0       22.0       22.0       22.0       22.0       22.0       22.0       22.0       22.0       22.0        0.0        0.0        0.0        0.0        0.0        0.0        0.0        0.0        0.0        0.0        0.0        0.0      0.0       4.1      16.8      21.2      25.6    362.74
    25     1  1996     4     1     258.8     5.3      0.0    0.0    5.3    0.0      0.0      0.0   -9.90      3.0      3.0    100      0.0      0.0   100      3.0     3.0     100     15.0    0.30     -9     -9     -9      0     -9     0.0     0.0      0    -9.00      0.0      0.0      0.0   100     0.0     0.000    -9.9    0.000    0.000      -9        0.00    0.000    0.000     258.8    128.9    0.30    60.8     123.0      66.0      60.6      45.6      40.8      30.0    0.000     0.000     0.000     0.000     0.000    0.30     0.00    0.00      0   -9.90   -9.00       16.8       22.0       22.0       22.0       22.0       22.0       22.0       22.0       22.0       22.0       22.0       22.0        0.0        0.0        0.0        0.0        0.0        0.0        0.0        0.0        0.0        0.0        0.0        0.0      5.3       2.7      17.4      22.0      26.6    362.74
    26     1  1996     5     1     272.4    16.2      0.0    0.0   16.0    0.2      0.0      0.0   -9.90      2.4      2.4    100      0.0      0.0   100      2.4     2.4     100     15.8    0.30     -9     -9     -9      0     -9     0.0     0.0      0    -9.00      0.0      0.0      0.0   100     0.0     0.000    -9.9    0.000    0.000      -9        0.00    0.000    0.000     272.4    142.5    0.30    74.4     123.0      66.0      60.6      45.0      40.8      30.0    0.000     0.000     0.000     0.000     0.000    0.30     0.00    0.00      0   -9.90   -9.00       30.4       22.0       22.0       22.0       22.0       22.0       22.0       22.0       22.0       22.0       22.0       22.0        0.0        0.0        0.0        0.0        0.0        0.0        0.0        0.0        0.0        0.0        0.0        0.0     16.2       2.2      18.2      22.8      27.4    362.74
    27     1  1996     6     1     267.7     5.6      0.0    0.0    5.6    0.0      6.3      0.0   -9.90      4.0      4.0    100      0.0      0.0   100      4.0     4.0     100     17.2    0.30     -9     -9     -9      0     -9     0.0     0.0      0    -9.00      0.0      0.0      0.0   100     0.0     0.000    -9.9    0.000    0.000      -9        0.00    0.000    0.000     267.7    137.3    0.30    68.7     123.0      66.0      60.6      46.6      40.8      30.0    0.000     0.000     0.000     0.000     0.000    0.30     0.00    0.00      0   -9.90   -9.00       23.9       22.4       22.3       22.2       22.2       22.1       22.1       22.1       22.1       22.1       22.1       22.1        0.0        0.0        0.0        0.0        0.0        0.0        0.0        0.0        0.0        0.0        0.0        0.0      5.6       3.7      20.5      26.6      32.7    362.74
    28     1  1996     7     1     260.7     0.0      0.0    0.0    0.0    0.0      2.9      0.0   -9.90      4.7      4.1     87      0.0      0.0   100      4.7     4.1      87     16.9    0.30     -9     -9     -9      0     -9     0.0     0.0      0    -9.00      0.0      0.0      0.0   100     0.0     0.000    -9.9    0.000    0.000      -9        0.00    0.000    0.000     260.7    130.6    0.30    62.3     123.0      66.0      60.6      47.3      40.8      30.0    0.000     0.000     0.000     0.000     0.000    0.30     0.00    0.00      0   -9.90   -9.00       18.0       22.2       22.1       22.1       22.1       22.0       22.0       22.0       22.0       22.0       22.0       22.0        0.0        0.0        0.0        0.0        0.0        0.0        0.0        0.0        0.0        0.0        0.0        0.0      0.0       4.3      19.8      25.4      30.9    362.74
    29     1  1996     8     1     257.7     0.0      0.0    0.0    0.0    0.0      0.6      0.0   -9.90      4.6      2.4     52      0.0      0.0   100      4.6     2.4      52     16.9    0.30     -9     -9     -9      0     -9     0.0     0.0      0    -9.00      0.0      0.0      0.0   100     0.0     0.000    -9.9    0.000    0.000      -9        0.00    0.000    0.000     257.7    127.8    0.30    59.7     123.0      66.0      60.6      47.1      40.8      30.0    0.000     0.000     0.000     0.000     0.000    0.30     0.00    0.00      0   -9.90   -9.00       15.6       22.0       22.0       22.0       22.0       22.0       22.0       22.0       22.0       22.0       22.0       22.0        0.0        0.0        0.0        0.0        0.0        0.0        0.0        0.0        0.0        0.0        0.0        0.0      0.0       4.2      21.7      23.9      26.0    362.74
    30     1  1996     9     1     255.9     0.0      0.0    0.0    0.0    0.0      0.1      0.0   -9.90      4.8      1.7     37      0.0      0.0   100      4.8     1.7      37     17.1    0.30     -9     -9     -9      0     -9     0.0     0.0      0    -9.00      0.0      0.0      0.0   100     0.0     0.000    -9.9    0.000    0.000      -9        0.00    0.000    0.000     255.9    126.0    0.30    57.9     123.0      66.0      60.6      47.3      40.8      30.0    0.000     0.000     0.000     0.000     0.000    0.30     0.00    0.00      0   -9.90   -9.00       13.9       22.0       22.0       22.0       22.0       22.0       22.0       22.0       22.0       22.0       22.0       22.0        0.0        0.0        0.0        0.0        0.0        0.0        0.0        0.0        0.0        0.0        0.0        0.0      0.0       4.3      20.1      24.1      28.1    362.74
    31     1  1996    10     2     254.3     0.0      0.0    0.0    0.0    0.0      0.0      0.0   -9.90      5.4      1.5     28      0.1      0.1   100      5.4     1.5      28     17.6    0.31     -9      0      0      0      0     0.8     0.8      0     0.01      0.1      0.1      0.1   100    17.7     0.002    -9.9    0.000    0.000     100        0.00    0.000    0.000     254.3    124.5    0.31    57.7     125.4      67.3      61.7      48.9      41.6      30.6    0.000     0.000     0.000     0.000     0.000    0.31     0.00    0.00      0   -9.90   -9.00       12.3       22.0       22.0       22.0       22.0       22.0       22.0       22.0       22.0       22.0       22.0       22.0        0.0        0.0        0.0        0.0        0.0        0.0        0.0        0.0        0.0        0.0        0.0        0.0      0.0       5.0      21.3      25.9      30.5    362.74
     1     2  1996    11     2     253.1     0.0      0.0    0.0    0.0    0.0      0.0      0.0   -9.90      5.4      1.2     22      0.1      0.1   100      5.5     1.2      23     18.6    0.32      6      0      0      0      0     0.9     0.9      0     0.02      0.1      0.1      0.1   100    17.7     0.005    -9.9    0.000    0.000     100        0.00    0.000    0.000     253.1    123.2    0.32    58.7     129.7      69.6      63.9      50.6      43.0      31.6    0.000     0.000     0.000     0.000     0.000    0.32     0.00    0.00      0   -9.90   -9.00       11.1       22.0       22.0       22.0       22.0       22.0       22.0       22.0       22.0       22.0       22.0       22.0        0.0        0.0        0.0        0.0        0.0        0.0        0.0        0.0        0.0        0.0        0.0        0.0      0.0       5.0      23.3      28.5      33.6    362.74
     2     2  1996    12     2     264.8     0.0     16.4    0.0   16.4    0.0      0.0      0.0   -9.90      4.6      4.6    100      0.1      0.1   100      4.7     4.7     100     18.7    0.33      0      0      0      0      0     1.0     1.0      0     0.02      0.1      0.1      0.1   100    17.7     0.008    -9.9    0.000    0.000      99        0.00    0.000    0.000     264.8    134.9    0.33    72.6     133.8      71.8      64.8      51.3      43.7      32.6    0.000     0.000     0.000     0.000     0.000    0.33     0.00    0.00      0   -9.90   -9.00       22.8       22.0       22.0       22.0       22.0       22.0       22.0       22.0       22.0       22.0       22.0       22.0        0.0        0.0        0.0        0.0        0.0        0.0        0.0        0.0        0.0        0.0        0.0        0.0      0.0       4.3      23.4      28.7      34.0    362.74
     3     2  1996    13     2     259.8     0.0      0.0    0.0    0.0    0.0      0.5      0.0   -9.90      4.7      4.4     93      0.1      0.1   100      4.8     4.5      93     17.6    0.34      0      0      0      0      0     1.1     1.1      0     0.02      0.1      0.1      0.1   100    17.7     0.012    -9.9    0.000    0.000      99        0.00    0.000    0.000     259.8    129.8    0.34    69.5     137.6      73.9      66.9      53.0      45.1      33.6    0.000     0.000     0.000     0.000     0.000    0.34     0.00    0.00      0   -9.90   -9.00       17.6       22.1       22.0       22.0       22.0       22.0       22.0       22.0       22.0       22.0       22.0       22.0        0.0        0.0        0.0        0.0        0.0        0.0        0.0        0.0        0.0        0.0        0.0        0.0      0.0       4.4      21.1      26.8      32.4    362.74
     4     2  1996    14     2     256.6     0.0      0.0    0.0    0.0    0.0      0.2      0.0   -9.90      5.5      2.9     54      0.1      0.1   100      5.6     3.1      55     16.4    0.34      0      0      0      0      0     1.3     1.3      0     0.02      0.1      0.1      0.1   100    17.7     0.016    -9.9    0.000    0.000      99        0.00    0.000    0.000     256.6    126.7    0.34    68.4     141.4      75.9      69.8      55.3      47.0      34.5    0.000     0.000     0.000     0.000     0.000    0.34     0.00    0.00      0   -9.90   -9.00       14.5       22.0       22.0       22.0       22.0       22.0       22.0       22.0       22.0       22.0       22.0       22.0        0.0        0.0        0.0        0.0        0.0        0.0        0.0        0.0        0.0        0.0        0.0        0.0      0.0       5.1      18.8      25.3      31.8    362.74
     5     2  1996    15     2     254.5     0.0      0.0    0.0    0.0    0.0      0.0      0.0   -9.90      5.7      1.9     34      0.1      0.1   100      5.8     2.1      36     16.9    0.35      2      0      0      0      0     1.4     1.4      0     0.03      0.1      0.1      0.1   100    17.7     0.020    -9.9    0.000    0.000      99        0.00    0.000    0.000     254.5    124.6    0.35    68.3     145.0      77.8      71.9      56.9      48.4      35.4    0.000     0.000     0.000     0.000     0.000    0.35     0.00    0.00      0   -9.90   -9.00       12.5       22.0       22.0       22.0       22.0       22.0       22.0       22.0       22.0       22.0       22.0       22.0        0.0        0.0        0.0        0.0        0.0        0.0        0.0        0.0        0.0        0.0        0.0        0.0      0.0       5.3      19.8      25.4      31.0    362.74
     6     2  1996    16     2     253.1     0.0      0.0    0.0    0.0    0.0      0.0      0.0   -9.90      5.1      1.3     25      0.1      0.1   100      5.2     1.4      27     16.0    0.36      3      0      0      0      0     1.6     1.6      0     0.03      0.1      0.1      0.1   100    17.7     0.026    -9.9    0.000    0.000      99        0.00    0.000    0.000     253.1    123.2    0.36    68.8     148.5      79.7      72.8      57.7      49.0      36.2    0.000     0.000     0.000     0.000     0.000    0.36     0.00    0.00      0   -9.90   -9.00       11.1       22.0       22.0       22.0       22.0       22.0       22.0       22.0       22.0       22.0       22.0       22.0        0.0        0.0        0.0        0.0        0.0        0.0        0.0        0.0        0.0        0.0        0.0        0.0      0.0       4.8      18.0      23.8      29.5    362.74
     7     2  1996    17     2     251.7     0.0      0.0    0.0    0.0    0.0      0.0      0.0   -9.90      6.0      1.2     19      0.2      0.2   100      6.2     1.3      22     16.6    0.37      8      0      0      0      0     1.8     1.8      0     0.03      0.2      0.2      0.2   100    17.7     0.031    -9.9    0.000    0.000      99        0.00    0.000    0.000     251.7    121.8    0.37    69.3     152.0      81.5      76.0      60.2      51.1      37.1    0.000     0.000     0.000     0.000     0.000    0.37     0.00    0.00      0   -9.90   -9.00        9.9       21.8       22.0       22.0       22.0       22.0       22.0       22.0       22.0       22.0       22.0       22.0        0.0        0.0        0.0        0.0        0.0        0.0        0.0        0.0        0.0        0.0        0.0        0.0      0.0       5.7      19.3      25.4      31.4    362.74
     8     2  1996    18     2     264.9     0.0     18.5    0.0   18.5    0.0      0.0      0.0   -9.90      5.1      5.1    100      0.2      0.2   100      5.3     5.3     100     15.9    0.38      0      0      0      0      0     2.1     2.1      0     0.04      0.2      0.2      0.2   100    17.7     0.038    -9.9    0.000    0.000      99        0.00    0.000    0.000     264.9    135.0    0.38    84.3     155.3      83.3      76.2      60.3      51.3      37.9    0.000     0.000     0.000     0.000     0.000    0.38     0.00    0.00      0   -9.90   -9.00       23.1       21.8       22.0       22.0       22.0       22.0       22.0       22.0       22.0       22.0       22.0       22.0        0.0        0.0        0.0        0.0        0.0        0.0        0.0        0.0        0.0        0.0        0.0        0.0      0.0       4.8      17.7      24.5      31.3    362.74
     9     2  1996    19     2     259.7     0.0      0.0    0.0    0.0    0.0      0.6      0.0   -9.90      5.1      4.4     87      0.2      0.2   100      5.3     4.6      88     16.6    0.39      0      0      0      0      0     2.4     2.4      0     0.04      0.2      0.2      0.2   100    17.7     0.045    -9.9    0.000    0.000      98        0.00    0.000    0.000     259.7    129.8    0.39    80.7     158.6      85.1      77.8      61.6      52.4      38.7    0.000     0.000     0.000     0.000     0.000    0.39     0.00    0.00      0   -9.90   -9.00       17.5       22.1       22.0       22.0       22.0       22.0       22.0       22.0       22.0       22.0       22.0       22.0        0.0        0.0        0.0        0.0        0.0        0.0        0.0        0.0        0.0        0.0        0.0        0.0      0.0       4.8      19.3      26.5      33.8    362.74
    10     2  1996    20     2     256.6     0.0      0.0    0.0    0.0    0.0      0.2      0.0   -9.90      5.4      2.6     49      0.2      0.2   100      5.7     2.9      51     16.3    0.39      0      0      0      0      0     2.7     2.7      0     0.05      0.2      0.2      0.2   100    17.7     0.054    -9.9    0.000    0.000      98        0.00    0.000    0.000     256.6    126.7    0.39    79.4     161.7      86.8      80.0      63.3      53.8      39.4    0.000     0.000     0.000     0.000     0.000    0.39     0.00    0.00      0   -9.90   -9.00       14.6       22.0       22.0       22.0       22.0       22.0       22.0       22.0       22.0       22.0       22.0       22.0        0.0        0.0        0.0        0.0        0.0        0.0        0.0        0.0        0.0        0.0        0.0        0.0      0.0       5.2      18.6      25.1      31.6    362.74
    11     2  1996    21     2     254.7     0.0      0.0    0.0    0.0    0.0      0.0      0.0   -9.90      5.1      1.6     32      0.3      0.3   100      5.4     1.9      36     15.9    0.40      0      0      0      0      0     3.1     3.1      0     0.05      0.3      0.3      0.3   100    17.7     0.064    -9.9    0.000    0.000      98        0.00    0.000    0.000     254.7    124.8    0.40    79.1     164.9      88.5      81.0      64.2      54.6      40.2    0.000     0.000     0.000     0.000     0.000    0.40     0.00    0.00      0   -9.90   -9.00       12.7       22.0       22.0       22.0       22.0       22.0       22.0       22.0       22.0       22.0       22.0       22.0        0.0        0.0        0.0        0.0        0.0        0.0        0.0        0.0        0.0        0.0        0.0        0.0      0.0       4.9      17.9      24.9      31.8    362.74
    12     2  1996    22     2     253.0     0.0      0.0    0.0    0.0    0.0      0.0      0.0   -9.90      5.6      1.3     23      0.3      0.3   100      5.9     1.7      28     15.9    0.41      3      0      0      0      0     3.5     3.5      0     0.06      0.3      0.3      0.3   100    17.7     0.075    -9.9    0.000    0.000      98        0.00    0.000    0.000     253.0    123.1    0.41    79.1     167.9      90.1      83.5      66.1      56.2      41.0    0.000     0.000     0.000     0.000     0.000    0.41     0.00    0.00      0   -9.90   -9.00       11.0       22.0       22.0       22.0       22.0       22.0       22.0       22.0       22.0       22.0       22.0       22.0        0.0        0.0        0.0        0.0        0.0        0.0        0.0        0.0        0.0        0.0        0.0        0.0      0.0       5.4      17.7      25.2      32.8    362.74
    13     2  1996    23     2     251.9     0.0      0.0    0.0    0.0    0.0      0.0      0.0   -9.90      4.6      0.8     18      0.3      0.3   100      4.9     1.1      23     18.0    0.42      2      0      0      0      0     4.0     4.0      0     0.07      0.3      0.3      0.3   100    17.7     0.087    -9.9    0.000    0.000      98        0.00    0.000    0.000     251.9    122.0    0.42    79.6     170.9      91.7      83.2      65.9      56.1      41.7    0.000     0.000     0.000     0.000     0.000    0.42     0.00    0.00      0   -9.90   -9.00        9.9       22.0       22.0       22.0       22.0       22.0       22.0       22.0       22.0       22.0       22.0       22.0        0.0        0.0        0.0        0.0        0.0        0.0        0.0        0.0        0.0        0.0        0.0        0.0      0.0       4.5      22.0      27.9      33.9    362.74
    14     2  1996    24     2     250.8     0.0      0.0    0.0    0.0    0.0      0.0      0.0   -9.90      4.9      0.7     15      0.4      0.4   100      5.3     1.1      21     16.9    0.42      4      0      0      0      0     4.5     4.5      0     0.08      0.4      0.4      0.4   100    17.7     0.101    -9.9    0.000    0.000      98        0.00    0.000    0.000     250.8    120.9    0.42    80.1     173.9      93.3      85.3      67.6      57.5      42.4    0.000     0.000     0.000     0.000     0.000    0.42     0.00    0.00      0   -9.90   -9.00        9.2       21.6       22.0       22.0       22.0       22.0       22.0       22.0       22.0       22.0       22.0       22.0        0.0        0.0        0.0        0.0        0.0        0.0        0.0        0.0        0.0        0.0        0.0        0.0      0.0       4.8      19.9      26.5      33.1    362.74
    15     2  1996    25     2     249.5     0.0      0.0    0.0    0.0    0.0      0.0      0.0   -9.90      6.0      0.7     12      0.5      0.5   100      6.5     1.3      20     15.9    0.43      9      0      0      0      0     5.1     5.1      0     0.09      0.5      0.5      0.5   100    17.7     0.117    -9.9    0.000    0.000      97        0.00    0.000    0.000     249.5    119.6    0.43    80.4     176.8      94.9      88.9      70.4      59.7      43.1    0.000     0.000     0.000     0.000     0.000    0.43     0.00    0.00      0   -9.90   -9.00        8.4       21.1       22.0       22.0       22.0       22.0       22.0       22.0       22.0       22.0       22.0       22.0        0.0        0.0        0.0        0.0        0.0        0.0        0.0        0.0        0.0        0.0        0.0        0.0      0.0       5.9      17.9      25.6      33.2    362.74
    16     2  1996    26     2     264.3     0.0     21.0    0.0   21.0    0.0      0.0      0.0   -9.90      5.6      5.6    100      0.6      0.6   100      6.2     6.2     100     17.4    0.44      0      0      0      0      0     5.8     5.8      0     0.10      0.6      0.6      0.6   100    17.7     0.135    -9.9    0.000    0.000      97        0.00    0.000    0.000     264.3    134.5    0.44    96.7     179.6      96.4      89.7      71.1      60.3      43.8    0.000     0.000     0.000     0.000     0.000    0.44     0.00    0.00      0   -9.90   -9.00       23.3       21.1       22.0       22.0       22.0       22.0       22.0       22.0       22.0       22.0       22.0       22.0        0.0        0.0        0.0        0.0        0.0        0.0        0.0        0.0        0.0        0.0        0.0        0.0      0.0       5.6      20.7      27.9      35.0    362.74
    17     2  1996    27     2     258.8     0.0      0.0    0.0    0.0    0.0      0.2      0.0   -9.90      5.7      4.7     82      0.7      0.7   100      6.4     5.4      84     17.9    0.44      0      0      0      0      0     6.6     6.6      0     0.11      0.7      0.7      0.7   100    17.7     0.155    -9.9    0.000    0.000      97        0.00    0.000    0.000     258.8    128.9    0.44    92.7     182.4      97.9      91.6      72.5      61.5      44.5    0.000     0.000     0.000     0.000     0.000    0.44     0.00    0.00      0   -9.90   -9.00       16.8       22.0       22.0       22.0       22.0       22.0       22.0       22.0       22.0       22.0       22.0       22.0        0.0        0.0        0.0        0.0        0.0        0.0        0.0        0.0        0.0        0.0        0.0        0.0      0.0       5.8      21.7      28.0      34.3    362.74
    18     2  1996    28     2     255.6     0.0      0.0    0.0    0.0    0.0      0.1      0.0   -9.90      5.8      2.4     42      0.8      0.8   100      6.6     3.2      49     16.6    0.45      0      0      0      0      0     7.5     7.5      0     0.13      0.8      0.8      0.8   100    17.7     0.178    -9.9    0.000    0.000      97        0.00    0.000    0.000     255.6    125.7    0.45    90.9     185.2      99.4      93.3      73.9      62.7      45.2    0.000     0.000     0.000     0.000     0.000    0.45     0.00    0.00      0   -9.90   -9.00       13.6       22.0       22.0       22.0       22.0       22.0       22.0       22.0       22.0       22.0       22.0       22.0        0.0        0.0        0.0        0.0        0.0        0.0        0.0        0.0        0.0        0.0        0.0        0.0      0.0       6.0      19.3      27.1      35.0    362.74
    19     2  1996    29     2     253.3     0.0      0.0    0.0    0.0    0.0      0.0      0.0   -9.90      5.3      1.4     26      0.8      0.8   100      6.2     2.2      36     16.4    0.46      1      0      0      0      0     8.5     8.5      0     0.15      0.8      0.8      0.8   100    17.7     0.204    -9.9    0.000    0.000      97        0.00    0.000    0.000     253.3    123.4    0.46    90.2     188.0     100.9      93.9      74.4      63.1      45.8    0.000     0.000     0.000     0.000     0.000    0.46     0.00    0.00      0   -9.90   -9.00       11.3       22.0       22.0       22.0       22.0       22.0       22.0       22.0       22.0       22.0       22.0       22.0        0.0        0.0        0.0        0.0        0.0        0.0        0.0        0.0        0.0        0.0        0.0        0.0      0.0       5.6      18.7      27.2      35.7    362.74
    20     2  1996    30     2     251.5     0.0      0.0    0.0    0.0    0.0      0.0      0.0   -9.90      5.0      0.9     18      0.9      0.9   100      5.9     1.8      31     16.6    0.47      3      0      0      0      0     9.7     9.7      0     0.17      0.9      0.9      0.9   100    17.7     0.233    -9.9    0.000    0.000      96        0.00    0.000    0.000     251.5    121.6    0.47    89.8     190.7     102.3      94.8      75.1      63.7      46.5    0.000     0.000     0.000     0.000     0.000    0.47     0.00    0.00      0   -9.90   -9.00        9.5       22.0       22.0       22.0       22.0       22.0       22.0       22.0       22.0       22.0       22.0       22.0        0.0        0.0        0.0        0.0        0.0        0.0        0.0        0.0        0.0        0.0        0.0        0.0      0.0       5.4      19.2      25.1      31.0    362.74
    21     2  1996    31     2     249.8     0.0      0.0    0.0    0.0    0.0      0.0      0.0   -9.90      4.9      0.7     13      1.0      1.0   100      5.9     1.7      28     16.6    0.47      5      0      0      0      0    11.0    11.0      0     0.19      1.0      1.0      1.0   100    17.7     0.266    -9.9    0.000    0.000      96        0.00    0.000    0.000     249.8    120.0    0.47    89.6     193.3     103.7      96.2      76.2      64.7      47.2    0.000     0.000     0.000     0.000     0.000    0.47     0.00    0.00      0   -9.90   -9.00        8.9       21.0       22.0       22.0       22.0       22.0       22.0       22.0       22.0       22.0       22.0       22.0        0.0        0.0        0.0        0.0        0.0        0.0        0.0        0.0        0.0        0.0        0.0        0.0      0.0       5.5      19.2      25.6      32.1    362.74
    22     2  1996    32     2     247.6     0.3      0.0    0.0    0.3    0.0      0.0      0.0   -9.90      5.2      1.3     25      1.2      1.2   100      6.4     2.5      39     16.8    0.48      8      0      0      0      0    12.4    12.4      0     0.21      1.2      1.2      1.2   100    17.7     0.303    -9.9    0.000    0.000      96        0.00    0.000    0.000     247.6    117.8    0.48    88.8     196.0     105.1      98.5      78.0      66.2      47.8    0.000     0.000     0.000     0.000     0.000    0.48     0.00    0.00      0   -9.90   -9.00        7.9       19.8       22.0       22.0       22.0       22.0       22.0       22.0       22.0       22.0       22.0       22.0        0.0        0.0        0.0        0.0        0.0        0.0        0.0        0.0        0.0        0.0        0.0        0.0      0.3       5.9      19.5      24.8      30.1    362.74
    23     2  1996    33     2     263.1     0.0     22.8    0.0   22.8    0.0      0.0      0.0   -9.90      5.8      5.8    100      1.6      1.6   100      7.4     7.4     100     17.0    0.48      0      0      0      0      0    14.1    14.1      0     0.23      1.6      1.6      1.6   100    17.7     0.345    -9.9    0.000    0.000      96        0.00    0.000    0.000     263.1    133.2    0.48   105.6     198.6     106.5     101.7      80.5      68.2      48.4    0.000     0.000     0.000     0.000     0.000    0.48     0.00    0.00      0   -9.90   -9.00       23.3       19.8       22.0       22.0       22.0       22.0       22.0       22.0       22.0       22.0       22.0       22.0        0.0        0.0        0.0        0.0        0.0        0.0        0.0        0.0        0.0        0.0        0.0        0.0      0.0       6.8      20.0      26.5      33.0    362.74
    24     2  1996    34     2     255.4     0.0      0.0    0.0    0.0    0.0      0.0      0.0   -9.90      7.1      5.4     75      2.3      2.3   100      9.4     7.7      81     17.6    0.49      0      0      0      0      0    16.0    16.0      0     0.26      2.3      2.3      2.3   100    17.7     0.391    -9.9    0.000    0.000      95        0.00    0.000    0.000     255.4    125.5    0.49    99.3     201.1     107.9     107.2      84.9      71.6      49.1    0.000     0.000     0.000     0.000     0.000    0.49     0.00    0.00      0   -9.90   -9.00       14.5       20.9       22.0       22.0       22.0       22.0       22.0       22.0       22.0       22.0       22.0       22.0        0.0        0.0        0.0        0.0        0.0        0.0        0.0        0.0        0.0        0.0        0.0        0.0      0.0       8.7      21.3      27.9      34.4    362.74
    25     2  1996    35     2     251.4     0.0      0.0    0.0    0.0    0.0      0.0      0.0   -9.90      6.1      1.7     28      2.3      2.3   100      8.4     4.0      48     17.9    0.50      5      0      0      0      0    18.1    18.1      0     0.29      2.3      2.3      2.3   100    17.7     0.443    -9.9    0.000    0.000      95        0.00    0.000    0.000     251.4    121.5    0.50    96.7     203.7     109.3     106.5      84.4      71.3      49.7    0.000     0.000     0.000     0.000     0.000    0.50     0.00    0.00      0   -9.90   -9.00       10.4       20.9       22.0       22.0       22.0       22.0       22.0       22.0       22.0       22.0       22.0       22.0        0.0        0.0        0.0        0.0        0.0        0.0        0.0        0.0        0.0        0.0        0.0        0.0      0.0       7.8      21.8      27.9      34.0    362.74
    26     2  1996    36     2     264.3     0.0     21.1    0.0   21.1    0.0      0.0      0.0   -9.90      5.6      5.6    100      2.5      2.5   100      8.1     8.1     100     17.2    0.50      0      0      0      0      0    20.7    20.7      0     0.33      2.5      2.5      2.5   100    17.7     0.502    -9.9    0.000    0.000      95        0.00    0.000    0.000     264.3    134.4    0.50   111.0     206.2     110.6     107.2      84.9      71.8      50.3    0.000     0.000     0.000     0.000     0.000    0.50     0.00    0.00      0   -9.90   -9.00       23.4       20.9       22.0       22.0       22.0       22.0       22.0       22.0       22.0       22.0       22.0       22.0        0.0        0.0        0.0        0.0        0.0        0.0        0.0        0.0        0.0        0.0        0.0        0.0      0.0       7.5      20.5      27.7      34.9    362.74
    27     2  1996    37     2     257.4     0.0      0.0    0.0    0.0    0.0      0.2      0.0   -9.90      4.9      4.2     86      2.5      2.5   100      7.4     6.7      91     18.1    0.51      0      0      0      0      0    23.5    23.5      0     0.37      2.5      2.5      2.5   100    17.7     0.568    -9.9    0.000    0.000      95        0.00    0.000    0.000     257.4    127.5    0.51   105.4     208.7     112.0     107.1      84.8      71.8      50.9    0.000     0.000     0.000     0.000     0.000    0.51     0.00    0.00      0   -9.90   -9.00       15.4       22.0       22.0       22.0       22.0       22.0       22.0       22.0       22.0       22.0       22.0       22.0        0.0        0.0        0.0        0.0        0.0        0.0        0.0        0.0        0.0        0.0        0.0        0.0      0.0       6.9      22.2      28.5      34.9    362.74
    28     2  1996    38     2     252.4     0.0      0.0    0.0    0.0    0.0      0.0      0.0   -9.90      5.2      1.8     35      3.2      3.2   100      8.4     5.0      60     16.9    0.51      3      0      0      0      0    26.7    26.7      0     0.41      3.2      3.2      3.2   100    17.7     0.641    -9.9    0.000    0.000      95        0.00    0.000    0.000     252.4    122.5    0.51   101.7     211.1     113.3     110.4      87.4      73.9      51.5    0.000     0.000     0.000     0.000     0.000    0.51     0.00    0.00      0   -9.90   -9.00       10.4       22.0       22.0       22.0       22.0       22.0       22.0       22.0       22.0       22.0       22.0       22.0        0.0        0.0        0.0        0.0        0.0        0.0        0.0        0.0        0.0        0.0        0.0        0.0      0.0       7.7      19.7      26.5      33.3    362.74
    29     2  1996    39     2     248.5     0.0      0.0    0.0    0.0    0.0      0.0      0.0   -9.90      4.3      0.7     16      3.2      3.2   100      7.5     3.9      51     17.2    0.52      6      0      0      0      0    30.1    30.1      0     0.46      3.2      3.2      3.2   100    17.7     0.722    -9.9    0.000    0.000      94        0.00    0.000    0.000     248.5    118.6    0.52    99.1     213.6     114.6     109.9      87.0      73.7      52.1    0.000     0.000     0.000     0.000     0.000    0.52     0.00    0.00      0   -9.90   -9.00        9.7       18.8       22.0       22.0       22.0       22.0       22.0       22.0       22.0       22.0       22.0       22.0        0.0        0.0        0.0        0.0        0.0        0.0        0.0        0.0        0.0        0.0        0.0        0.0      0.0       7.0      20.5      26.6      32.8    362.74
     1     3  1996    40     2     263.1     0.0     23.0    0.0   23.0    0.0      0.0      0.0   -9.90      4.4      4.4    100      4.0      4.0   100      8.4     8.4     100     17.8    0.53      0      0      0      0      0    34.3    34.3      0     0.51      4.0      4.0      4.0   100    17.7     0.812    -9.9    0.000    0.000      94        0.00    0.000    0.000     263.1    133.2    0.53   115.0     216.0     115.9     113.1      89.6      75.7      52.7    0.000     0.000     0.000     0.000     0.000    0.53     0.00    0.00      0   -9.90   -9.00       24.3       18.8       22.0       22.0       22.0       22.0       22.0       22.0       22.0       22.0       22.0       22.0        0.0        0.0        0.0        0.0        0.0        0.0        0.0        0.0        0.0        0.0        0.0        0.0      0.0       7.8      21.5      28.4      35.2    362.74
     2     3  1996    41     2     254.2     0.0      0.0    0.0    0.0    0.0      0.0      0.0   -9.90      4.4      4.1     94      4.8      4.8   100      9.2     8.9      97     17.7    0.53      0      0      0      0      0    39.0    39.0      0     0.56      4.8      4.8      4.8   100    17.7     0.911    -9.9    0.000    0.000      94        0.00    0.000    0.000     254.2    124.3    0.53   107.4     218.4     117.2     116.1      91.9      77.6      53.3    0.000     0.000     0.000     0.000     0.000    0.53     0.00    0.00      0   -9.90   -9.00       13.3       20.9       22.0       22.0       22.0       22.0       22.0       22.0       22.0       22.0       22.0       22.0        0.0        0.0        0.0        0.0        0.0        0.0        0.0        0.0        0.0        0.0        0.0        0.0      0.0       8.5      21.4      27.6      33.8    362.74
     3     3  1996    42     2     248.8     0.0      0.0    0.0    0.0    0.0      0.0      0.0   -9.90      3.4      0.9     28      4.4      4.4   100      7.8     5.4      69     18.0    0.54      4      0      0      0      0    43.2    43.2      0     0.61      4.4      4.4      4.4   100    17.7     1.019    -9.9    0.000    0.000      94        0.00    0.000    0.000     248.8    118.9    0.54   103.3     220.8     118.5     114.3      90.5      76.6      53.8    0.000     0.000     0.000     0.000     0.000    0.54     0.00    0.00      0   -9.90   -9.00        9.0       19.8       22.0       22.0       22.0       22.0       22.0       22.0       22.0       22.0       22.0       22.0        0.0        0.0        0.0        0.0        0.0        0.0        0.0        0.0        0.0        0.0        0.0        0.0      0.0       7.3      22.0      28.1      34.3    362.74
     4     3  1996    43     2     264.0     0.0     23.0    0.0   23.0    0.0      0.0      0.0   -9.90      3.0      3.0    100      4.7      4.7   100      7.8     7.8     100     18.4    0.54      0      0      0      0      0    47.1    47.1      0     0.65      4.7      4.7      4.7   100    17.7     1.134    -9.9    0.000    0.000      95        0.00    0.000    0.000     264.0    134.2    0.54   119.8     223.1     119.7     115.4      91.4      77.3      54.4    0.000     0.000     0.000     0.000     0.000    0.54     0.00    0.00      0   -9.90   -9.00       24.2       19.8       22.0       22.0       22.0       22.0       22.0       22.0       22.0       22.0       22.0       22.0        0.0        0.0        0.0        0.0        0.0        0.0        0.0        0.0        0.0        0.0        0.0        0.0      0.0       7.2      22.8      29.5      36.3    362.74
     5     3  1996    44     2     256.3     0.0      0.0    0.0    0.0    0.0      0.0      0.0   -9.90      2.8      2.8    100      5.0      5.0   100      7.8     7.8     100     19.2    0.55      0      0      0      0      0    50.5    50.5      0     0.68      5.0      5.0      5.0   100    17.7     1.256    -9.9    0.000    0.000      95        0.00    0.000    0.000     256.3    126.4    0.55   113.3     225.4     121.0     116.7      92.4      78.2      55.0    0.000     0.000     0.000     0.000     0.000    0.55     0.00    0.00      0   -9.90   -9.00       14.4       21.9       22.0       22.0       22.0       22.0       22.0       22.0       22.0       22.0       22.0       22.0        0.0        0.0        0.0        0.0        0.0        0.0        0.0        0.0        0.0        0.0        0.0        0.0      0.0       7.3      24.5      30.4      36.4    362.74
     6     3  1996    45     2     249.6     0.0      0.0    0.0    0.0    0.0      0.0      0.0   -9.90      2.3      1.9     81      4.8      4.8   100      7.1     6.7      94     19.0    0.56      1      0      0      0      0    53.4    53.4      0     0.71      4.8      4.8      4.8   100    17.7     1.382    -9.9    0.000    0.000      95        0.00    0.000    0.000     249.6    119.7    0.56   107.8     227.8     122.2     116.4      92.2      78.1      55.5    0.000     0.000     0.000     0.000     0.000    0.56     0.00    0.00      0   -9.90   -9.00        9.0       20.7       22.0       22.0       22.0       22.0       22.0       22.0       22.0       22.0       22.0       22.0        0.0        0.0        0.0        0.0        0.0        0.0        0.0        0.0        0.0        0.0        0.0        0.0      0.0       6.7      24.0      30.1      36.1    362.74
     7     3  1996    46     2     244.5     0.0      0.0    0.0    0.0    0.0      0.0      0.0   -9.90      2.1      0.4     21      4.7      4.7   100      6.8     5.2      76     18.6    0.56      7      0      0      0      0    55.9    55.9      0     0.74      4.7      4.7      4.7   100    17.7     1.512    -9.9    0.000    0.000      95        0.00    0.000    0.000     244.5    114.6    0.56   103.9     230.0     123.4     116.9      92.6      78.5      56.1    0.000     0.000     0.000     0.000     0.000    0.56     0.00    0.00      0   -9.90   -9.00        8.5       16.6       21.4       22.0       22.0       22.0       22.0       22.0       22.0       22.0       22.0       22.0        0.0        0.0        0.0        0.0        0.0        0.0        0.0        0.0        0.0        0.0        0.0        0.0      0.0       6.4      23.1      29.2      35.4    362.74
     8     3  1996    47     2     264.8     0.0     26.4    0.0   26.4    0.0      0.0      0.0   -9.90      1.8      1.8    100      4.3      4.3   100      6.1     6.1     100     18.6    0.57      0      0      0      0      0    58.2    58.2      0     0.76      4.3      4.3      4.3   100    17.7     1.646    -9.9    0.000    0.000      95        0.00    0.000    0.000     264.8    134.9    0.57   125.4     232.3     124.7     116.3      92.1      78.2      56.7    0.000     0.000     0.000     0.000     0.000    0.57     0.00    0.00      0   -9.90   -9.00       28.8       16.6       21.4       22.0       22.0       22.0       22.0       22.0       22.0       22.0       22.0       22.0        0.0        0.0        0.0        0.0        0.0        0.0        0.0        0.0        0.0        0.0        0.0        0.0      0.0       5.7      23.3      30.0      36.7    362.74
     9     3  1996    48     2     258.1     0.2      0.0    0.0    0.2    0.0      0.2      0.0   -9.90      1.8      1.6     89      5.0      5.0   100      6.8     6.6      97     19.1    0.57      0      0      0      0      0    60.3    60.3      0     0.78      5.0      5.0      5.0   100    17.7     1.783    -9.9    0.000    0.000      96        0.00    0.000    0.000     258.1    128.2    0.57   120.0     234.6     125.9     119.2      94.4      80.0      57.2    0.000     0.000     0.000     0.000     0.000    0.57     0.00    0.00      0   -9.90   -9.00       15.8       22.2       22.1       22.0       22.0       22.0       22.0       22.0       22.0       22.0       22.0       22.0        0.0        0.0        0.0        0.0        0.0        0.0        0.0        0.0        0.0        0.0        0.0        0.0      0.2       6.4      24.2      29.8      35.3    362.74
    10     3  1996    49     2     250.2     0.0      0.0    0.0    0.0    0.0      0.3      0.0   -9.90      2.4      0.8     33      6.9      6.9   100      9.3     7.7      83     18.1    0.58      4      0      0      0      0    62.0    62.0      0     0.79      6.9      6.9      6.9   100    17.7     1.923    -9.9    0.000    0.000      96        0.00    0.000    0.000     250.2    120.3    0.58   113.2     236.8     127.1     126.4     100.1      84.4      57.8    0.000     0.000     0.000     0.000     0.000    0.58     0.00    0.00      0   -9.90   -9.00       10.4       19.7       22.0       22.0       22.0       22.0       22.0       22.0       22.0       22.0       22.0       22.0        0.0        0.0        0.0        0.0        0.0        0.0        0.0        0.0        0.0        0.0        0.0        0.0      0.0       8.7      22.1      29.5      36.9    362.74
    11     3  1996    50     2     262.1     0.0     23.2    0.0   23.2    0.0      0.0      0.0   -9.90      2.7      2.7    100      8.5      8.5   100     11.2    11.2     100     18.6    0.58      0      0      0      0      0    63.6    63.6      0     0.80      8.5      8.5      8.5   100    17.7     2.066    -9.9    0.000    0.000      96        0.00    0.000    0.000     262.1    132.2    0.58   126.3     239.0     128.3     128.3     104.8      88.1      58.3    0.000     0.000     0.000     0.000     0.000    0.58     0.00    0.00      0   -9.90   -9.00       25.9       16.2       22.0       22.0       22.0       22.0       22.0       22.0       22.0       22.0       22.0       22.0        0.0        0.0        0.0        0.0        0.0        0.0        0.0        0.0        0.0        0.0        0.0        0.0      0.0      10.6      23.3      30.5      37.8    362.74
    12     3  1996    51     2     250.9     0.0      0.0    0.0    0.0    0.0      0.0      0.0   -9.90      2.6      2.6    100      8.6      8.6   100     11.2    11.2     100     19.1    0.59      0      0      0      0      0    65.0    65.0      0     0.82      8.6      8.6      8.6   100    17.7     2.210    -9.9    0.000    0.000      96        0.00    0.000    0.000     250.9    121.0    0.59   116.4     241.3     129.5     129.5     105.7      88.9      58.8    0.000     0.000     0.000     0.000     0.000    0.59     0.00    0.00      0   -9.90   -9.00       14.7       16.2       22.0       22.0       22.0       22.0       22.0       22.0       22.0       22.0       22.0       22.0        0.0        0.0        0.0        0.0        0.0        0.0        0.0        0.0        0.0        0.0        0.0        0.0      0.0      10.5      24.2      30.9      37.5    362.74
    13     3  1996    52     2     264.7     0.0     24.3    0.0   24.3    0.0      0.0      0.0   -9.90      2.3      2.3    100      8.2      8.2   100     10.5    10.5     100     18.6    0.59      0      0      0      0      0    66.2    66.2      0     0.83      8.2      8.2      8.2   100    17.7     2.356    -9.9    0.000    0.000      96        0.00    0.000    0.000     264.7    134.8    0.59   131.3     243.4     130.6     130.6     105.3      88.6      59.4    0.000     0.000     0.000     0.000     0.000    0.59     0.00    0.00      0   -9.90   -9.00       31.7       13.0       22.0       22.0       22.0       22.0       22.0       22.0       22.0       22.0       22.0       22.0        0.0        0.0        0.0        0.0        0.0        0.0        0.0        0.0        0.0        0.0        0.0        0.0      0.0       9.9      23.3      30.0      36.7    362.74
    14     3  1996    53     2     254.1     0.0      0.0    0.0    0.0    0.0      0.2      0.0   -9.90      2.2      2.2    100      8.2      8.2   100     10.4    10.4     100     18.7    0.60      0      0      0      0      0    67.3    67.3      0     0.84      8.2      8.2      8.2   100    17.7     2.504    -9.9    0.000    0.000      97        0.00    0.000    0.000     254.1    124.2    0.60   121.9     245.6     131.8     131.8     106.2      89.4      59.9    0.000     0.000     0.000     0.000     0.000    0.60     0.00    0.00      0   -9.90   -9.00       15.2       18.8       22.0       22.0       22.0       22.0       22.0       22.0       22.0       22.0       22.0       22.0        0.0        0.0        0.0        0.0        0.0        0.0        0.0        0.0        0.0        0.0        0.0        0.0      0.0       9.8      23.4      29.1      34.8    362.74
    15     3  1996    54     2     244.8     0.0      0.0    0.0    0.0    0.0      0.0      0.0   -9.90      1.9      1.9    100      7.3      7.3   100      9.2     9.2     100     18.4    0.60      7      0      0      0      0    68.1    68.1      0     0.84      7.3      7.3      7.3   100    17.7     2.653    -9.9    0.000    0.000      97        0.00    0.000    0.000     244.8    115.0    0.60   113.8     247.8     133.0     132.1     104.6      88.3      60.4    0.000     0.000     0.000     0.000     0.000    0.60     0.00    0.00      0   -9.90   -9.00        9.4       15.4       22.0       22.0       22.0       22.0       22.0       22.0       22.0       22.0       22.0       22.0        0.0        0.0        0.0        0.0        0.0        0.0        0.0        0.0        0.0        0.0        0.0        0.0      0.0       8.7      22.9      27.6      32.4    362.74
    16     3  1996    55     2     264.9     0.0     28.4    0.0   28.4    0.0      0.0      0.0   -9.90      1.6      1.6    100      6.6      6.6   100      8.3     8.3     100     18.2    0.61      0      0      0      0      0    69.0    69.0      0     0.85      6.6      6.6      6.6   100    17.7     2.803    -9.9    0.000    0.000      97        0.00    0.000    0.000     264.9    135.0    0.61   135.0     249.9     134.1     130.8     103.6      87.6      61.0    0.000     0.000     0.000     0.000     0.000    0.61     0.00    0.00      0   -9.90   -9.00       31.1       13.8       22.0       22.0       22.0       22.0       22.0       22.0       22.0       22.0       22.0       22.0        0.0        0.0        0.0        0.0        0.0        0.0        0.0        0.0        0.0        0.0        0.0        0.0      0.0       7.8      22.5      26.6      30.8    362.74
    17     3  1996    56     2     256.2     0.0      0.0    0.0    0.0    0.0      0.4      0.0   -9.90      1.6      1.6    100      6.8      6.8   100      8.4     8.4     100     19.1    0.61      0      0      0      0      0    69.7    69.7      0     0.86      6.8      6.8      6.8   100    17.7     2.955    -9.9    0.000    0.000      97        0.00    0.000    0.000     256.2    126.2    0.61   126.2     249.9     134.1     131.2     103.9      87.8      61.0    0.000     0.000     0.000     0.000     0.000    0.61     0.00    0.00      0   -9.90   -9.00       15.8       20.3       22.0       22.0       22.0       22.0       22.0       22.0       22.0       22.0       22.0       22.0        0.0        0.0        0.0        0.0        0.0        0.0        0.0        0.0        0.0        0.0        0.0        0.0      0.0       7.9      24.2      27.5      30.9    362.74
    18     3  1996    57     2     246.3     0.0      0.0    0.0    0.0    0.0      0.1      0.0   -9.90      1.8      1.8    100      8.0      8.0   100      9.8     9.8     100     18.4    0.61      6      0      0      0      0    70.3    70.3      0     0.86      8.0      8.0      8.0   100    17.7     3.107    -9.9    0.000    0.000      97        0.00    0.000    0.000     246.3    116.4    0.61   116.4     249.9     134.1     134.1     106.8      90.0      61.0    0.000     0.000     0.000     0.000     0.000    0.61     0.00    0.00      0   -9.90   -9.00        9.8       16.5       22.0       22.0       22.0       22.0       22.0       22.0       22.0       22.0       22.0       22.0        0.0        0.0        0.0        0.0        0.0        0.0        0.0        0.0        0.0        0.0        0.0        0.0      0.0       9.3      22.8      26.4      29.9    362.74
    19     3  1996    58     2     263.9     0.0     27.6    0.0   27.6    0.0      0.0      0.0   -9.90      1.8      1.8    100      8.1      8.1   100     10.0    10.0     100     18.7    0.61      0      0      0      0      0    70.9    70.9      0     0.86      8.1      8.1      8.1   100    17.7     3.260    -9.9    0.000    0.000      97        0.00    0.000    0.000     263.9    134.0    0.61   134.0     249.9     134.1     134.1     107.1      90.3      61.0    0.000     0.000     0.000     0.000     0.000    0.61     0.00    0.00      0   -9.90   -9.00       30.5       13.3       22.0       22.0       22.0       22.0       22.0       22.0       22.0       22.0       22.0       22.0        0.0        0.0        0.0        0.0        0.0        0.0        0.0        0.0        0.0        0.0        0.0        0.0      0.0       9.4      23.4      26.5      29.6    362.74
    20     3  1996    59     3     253.4     0.0      0.0    0.0    0.0    0.0      0.0      0.0   -9.90      1.9      1.9    100      8.6      8.6   100     10.4    10.4     100     17.9    0.61      0      0      0      0      0    71.4    71.4      0     0.87      8.6      8.6      8.6   100    17.7     3.414    -9.9    0.000    0.000      97        0.00    0.000    0.000     253.4    123.5    0.61   123.5     249.9     134.1     134.1     108.1      91.0      61.0    0.000     0.000     0.000     0.000     0.000    0.61     0.00    0.00      0   -9.90   -9.00       15.6       17.8       22.0       22.0       22.0       22.0       22.0       22.0       22.0       22.0       22.0       22.0        0.0        0.0        0.0        0.0        0.0        0.0        0.0        0.0        0.0        0.0        0.0        0.0      0.0       9.9      21.9      25.5      29.1    362.74
    21     3  1996    60     3     264.6     0.0     21.0    0.0   21.0    0.0      0.0      0.0   -9.90      1.7      1.7    100      8.1      8.1   100      9.9     9.9     100     18.4    0.61      0      0      0      0      0    71.8    71.8      0     0.87      8.1      8.1      8.1   100    17.7     3.568    -9.9    0.000    0.000      97        0.00    0.000    0.000     264.6    134.7    0.61   134.7     249.9     134.1     134.1     106.9      90.1      61.0    0.000     0.000     0.000     0.000     0.000    0.61     0.00    0.00      0   -9.90   -9.00       29.9       14.7       22.0       22.0       22.0       22.0       22.0       22.0       22.0       22.0       22.0       22.0        0.0        0.0        0.0        0.0        0.0        0.0        0.0        0.0        0.0        0.0        0.0        0.0      0.0       9.3      22.7      26.4      30.2    362.74
    22     3  1996    61     3     254.5     0.0      0.0    0.0    0.0    0.0      0.1      0.0   -9.90      1.7      1.7    100      8.3      8.3   100     10.0    10.0     100     18.4    0.61      0      0      0      0      0    72.2    72.2      0     0.88      8.3      8.3      8.3   100    17.7     3.723    -9.9    0.000    0.000      98        0.00    0.000    0.000     254.5    124.6    0.61   124.6     249.9     134.1     134.1     107.2      90.3      61.0    0.000     0.000     0.000     0.000     0.000    0.61     0.00    0.00      0   -9.90   -9.00       15.7       18.7       22.0       22.0       22.0       22.0       22.0       22.0       22.0       22.0       22.0       22.0        0.0        0.0        0.0        0.0        0.0        0.0        0.0        0.0        0.0        0.0        0.0        0.0      0.0       9.5      22.9      26.5      30.2    362.74
    23     3  1996    62     3     246.4     0.0      0.0    0.0    0.0    0.0      0.0      0.0   -9.90      1.4      1.4    100      6.7      6.7   100      8.1     8.1     100     18.2    0.61      4      0      0      0      0    72.5    72.5      0     0.88      6.7      6.7      6.7   100    17.7     3.878     1.5    0.058    1.167      98        0.02    0.000    0.000     246.4    116.5    0.61   116.5     249.9     134.1     130.4     103.2      87.3      61.0    0.000     0.000     0.000     0.000     0.000    0.61     0.00    0.00      0   -9.90   -9.00        9.9       16.5       22.0       22.0       22.0       22.0       22.0       22.0       22.0       22.0       22.0       22.0        0.0        0.0        0.0        0.0        0.0        0.0        0.0        0.0        0.0        0.0        0.0        0.0      0.0       7.6      22.5      26.4      30.3    362.74
    24     3  1996    63     3     261.1     0.0     25.7    0.0   25.7    0.0      0.0      0.0   -9.90      1.8      1.8    100      9.1      9.1   100     11.0    11.0     100     17.6    0.61      0      0      0      0      0    72.8    72.8      0     0.88      9.1      9.1      9.1   100    17.7     4.034     1.7    0.070    1.390      98        0.02    0.000    0.000     261.1    131.2    0.61   131.2     249.9     134.1     134.1     109.1      91.8      61.0    0.000     0.000     0.000     0.000     0.000    0.61     0.00    0.00      0   -9.90   -9.00       28.7       12.4       22.0       22.0       22.0       22.0       22.0       22.0       22.0       22.0       22.0       22.0        0.0        0.0        0.0        0.0        0.0        0.0        0.0        0.0        0.0        0.0        0.0        0.0      0.0      10.3      21.2      25.5      29.8    362.74
    25     3  1996    64     3     251.2     0.0      0.0    0.0    0.0    0.0      0.0      0.0   -9.90      1.7      1.7    100      8.3      8.3   100      9.9     9.9     100     17.2    0.61      0      0      0      0      0    73.1    73.1      0     0.88      8.3      8.3      8.3   100    17.7     4.190     2.0    0.083    1.653      98        0.02    0.000    0.000     251.2    121.3    0.61   121.3     249.9     134.1     134.1     107.1      90.2      61.0    0.000     0.000     0.000     0.000     0.000    0.61     0.00    0.00      0   -9.90   -9.00       15.7       15.5       22.0       22.0       22.0       22.0       22.0       22.0       22.0       22.0       22.0       22.0        0.0        0.0        0.0        0.0        0.0        0.0        0.0        0.0        0.0        0.0        0.0        0.0      0.0       9.4      20.5      25.1      29.7    362.74
    26     3  1996    65     3     264.2     0.0     22.8    0.0   22.8    0.0      0.0      0.0   -9.90      1.6      1.6    100      8.2      8.2   100      9.8     9.8     100     17.5    0.61      0      0      0      0      0    73.3    73.3      0     0.88      8.2      8.2      8.2   100    17.7     4.346     2.3    0.098    1.961      98        0.03    0.000    0.000     264.2    134.3    0.61   134.3     249.9     134.1     134.1     106.7      90.0      61.0    0.000     0.000     0.000     0.000     0.000    0.61     0.00    0.00      0   -9.90   -9.00       31.9       12.3       22.0       22.0       22.0       22.0       22.0       22.0       22.0       22.0       22.0       22.0        0.0        0.0        0.0        0.0        0.0        0.0        0.0        0.0        0.0        0.0        0.0        0.0      0.0       9.2      21.0      25.4      29.9    362.74
    27     3  1996    66     3     254.6     0.0      0.0    0.0    0.0    0.0      0.0      0.0   -9.90      1.6      1.6    100      8.0      8.0   100      9.6     9.6     100     18.2    0.61      0      0      0      0      0    73.5    73.5      0     0.89      8.0      8.0      8.0   100    17.7     4.503     2.6    0.116    2.322      98        0.03    0.000    0.000     254.6    124.7    0.61   124.7     249.9     134.1     134.1     106.3      89.6      61.0    0.000     0.000     0.000     0.000     0.000    0.61     0.00    0.00      0   -9.90   -9.00       15.9       18.8       22.0       22.0       22.0       22.0       22.0       22.0       22.0       22.0       22.0       22.0        0.0        0.0        0.0        0.0        0.0        0.0        0.0        0.0        0.0        0.0        0.0        0.0      0.0       9.1      22.5      26.2      30.0    362.74
    28     3  1996    67     3     245.9     0.0      0.0    0.0    0.0    0.0      0.0      0.0   -9.90      1.4      1.4    100      7.3      7.3   100      8.7     8.7     100     18.0    0.61     -9      0      0      0      0    73.9    73.9      0     0.89      7.3      7.3      7.3   100    17.7     4.660     2.9    0.137    2.745      98        0.04    0.000    0.000     245.9    116.0    0.61   116.0     249.9     134.1     131.9     104.5      88.2      61.0    0.000     0.000     0.000     0.000     0.000    0.61     0.00    0.00      0   -9.90   -9.00       10.0       15.9       22.0       22.0       22.0       22.0       22.0       22.0       22.0       22.0       22.0       22.0        0.0        0.0        0.0        0.0        0.0        0.0        0.0        0.0        0.0        0.0        0.0        0.0      0.0       8.2      22.0      26.0      30.0    362.74
    29     3  1996    68     3     262.2     0.0     26.7    0.0   26.7    0.0      0.0      0.0   -9.90      1.7      1.7    100      8.8      8.8   100     10.5    10.5     100     18.4    0.61     -9      0      0      0      0    74.0    74.0      0     0.89      8.8      8.8      8.8   100    17.7     4.817     3.4    0.162    3.238      98        0.04    0.000    0.000     262.2    132.3    0.61   132.3     249.9     134.1     134.1     108.1      91.0      61.0    0.000     0.000     0.000     0.000     0.000    0.61     0.00    0.00      0   -9.90   -9.00       30.1       12.2       22.0       22.0       22.0       22.0       22.0       22.0       22.0       22.0       22.0       22.0        0.0        0.0        0.0        0.0        0.0        0.0        0.0        0.0        0.0        0.0        0.0        0.0      0.0       9.9      22.8      26.2      29.6    362.74
    30     3  1996    69     3     254.3     0.0      0.0    0.0    0.0    0.0      0.0      0.0   -9.90      1.3      1.3    100      6.7      6.7   100      8.0     8.0     100     18.9    0.61     -9      0      0      0      0    74.1    74.1      0     0.89      6.7      6.7      6.7   100    17.7     4.975     3.8    0.191    3.812      98        0.05    0.000    0.000     254.3    124.4    0.61   124.4     249.9     134.1     130.0     103.0      87.1      61.0    0.000     0.000     0.000     0.000     0.000    0.61     0.00    0.00      0   -9.90   -9.00       16.2       18.1       22.0       22.0       22.0       22.0       22.0       22.0       22.0       22.0       22.0       22.0        0.0        0.0        0.0        0.0        0.0        0.0        0.0        0.0        0.0        0.0        0.0        0.0      0.0       7.5      23.8      26.6      29.5    362.74
    31     3  1996    70     3     247.0     0.5      0.0    0.0    0.5    0.0      0.0      0.0   -9.90      1.2      1.1     88      6.6      6.6   100      7.9     7.7      98     18.2    0.61     -9      0      0      0      0    74.2    74.2      0     0.89      6.6      6.6      6.6   100    17.7     5.132     4.4    0.224    4.479      98        0.06    0.000    0.000     247.0    117.1    0.61   117.1     249.9     134.1     129.9     102.9      87.0      61.0    0.000     0.000     0.000     0.000     0.000    0.61     0.00    0.00      0   -9.90   -9.00       10.8       16.3       22.0       22.0       22.0       22.0       22.0       22.0       22.0       22.0       22.0       22.0        0.0        0.0        0.0        0.0        0.0        0.0        0.0        0.0        0.0        0.0        0.0        0.0      0.5       7.5      22.4      26.2      30.1    362.74
     1     4  1996    71     3     240.6     1.4      0.0    0.0    1.4    0.0      0.0      0.0   -9.90      1.2      1.2    100      6.6      6.6   100      7.9     7.9     100     18.1    0.61     -9      0      0      0      0    74.3    74.3      0     0.89      6.6      6.6      6.6   100    17.7     5.290     5.0    0.263    5.250      98        0.06    0.000    0.000     240.6    110.7    0.61   110.7     249.9     134.1     129.8     102.8      87.0      61.0    0.000     0.000     0.000     0.000     0.000    0.61     0.00    0.00      0   -9.90   -9.00        9.2       12.1       21.3       22.0       22.0       22.0       22.0       22.0       22.0       22.0       22.0       22.0        0.0        0.0        0.0        0.0        0.0        0.0        0.0        0.0        0.0        0.0        0.0        0.0      1.4       7.4      22.3      26.2      30.2    362.74
     2     4  1996    72     3     264.9     1.8     29.5    0.0   31.3    0.0      0.0      0.0   -9.90      1.1      1.1    100      5.8      5.8   100      6.9     6.9     100     18.4    0.61     -9      0      0      0      0    74.4    74.4      0     0.89      5.8      5.8      5.8   100    17.7     5.448     5.6    0.307    6.141      98        0.07    0.000    0.000     264.9    135.0    0.61   135.0     249.9     134.1     127.4     100.9      85.5      61.0    0.000     0.000     0.000     0.000     0.000    0.61     0.00    0.00      0   -9.90   -9.00       34.4       11.3       21.3       22.0       22.0       22.0       22.0       22.0       22.0       22.0       22.0       22.0        0.0        0.0        0.0        0.0        0.0        0.0        0.0        0.0        0.0        0.0        0.0        0.0      1.8       6.6      22.8      26.5      30.2    362.74
     3     4  1996    73     3     258.3     0.4      0.0    0.0    0.4    0.0      0.3      0.0   -9.90      1.0      1.0     98      5.7      5.7   100      6.7     6.7     100     18.6    0.61     -9      0      0      0      0    74.5    74.5      0     0.89      5.7      5.7      5.7   100    17.7     5.605     6.4    0.358    7.165      98        0.08    0.000    0.000     258.3    128.4    0.61   128.4     249.9     134.1     126.9     100.5      85.2      61.0    0.000     0.000     0.000     0.000     0.000    0.61     0.00    0.00      0   -9.90   -9.00       16.4       21.8       22.1       22.0       22.0       22.0       22.0       22.0       22.0       22.0       22.0       22.0        0.0        0.0        0.0        0.0        0.0        0.0        0.0        0.0        0.0        0.0        0.0        0.0      0.4       6.4      23.2      27.0      30.9    362.74
     4     4  1996    74     3     253.4     1.4      0.0    0.0    1.4    0.0      0.1      0.0   -9.90      1.0      1.0    100      5.2      5.2   100      6.2     6.2     100     18.0    0.61     -9      0      0      0      0    74.5    74.5      0     0.89      5.2      5.2      5.2   100    17.7     5.763     7.2    0.417    8.339      98        0.10    0.000    0.000     253.4    123.5    0.61   123.5     249.9     134.1     125.4      99.4      84.3      61.0    0.000     0.000     0.000     0.000     0.000    0.61     0.00    0.00      0   -9.90   -9.00       11.8       21.6       22.0       22.0       22.0       22.0       22.0       22.0       22.0       22.0       22.0       22.0        0.0        0.0        0.0        0.0        0.0        0.0        0.0        0.0        0.0        0.0        0.0        0.0      1.4       5.8      22.0      26.6      31.1    362.74
     5     4  1996    75     3     248.7     1.0      0.0    0.0    1.0    0.0      0.0      0.0   -9.90      0.9      0.9    100      4.8      4.8   100      5.7     5.7     100     18.8    0.61     -9      0      0      0      0    74.6    74.6      0     0.89      4.8      4.8      4.8   100    17.7     5.920     8.2    0.484    9.679      98        0.11    0.000    0.000     248.7    118.8    0.61   118.8     249.9     134.1     124.2      98.4      83.6      61.0    0.000     0.000     0.000     0.000     0.000    0.61     0.00    0.00      0   -9.90   -9.00        8.7       20.0       22.0       22.0       22.0       22.0       22.0       22.0       22.0       22.0       22.0       22.0        0.0        0.0        0.0        0.0        0.0        0.0        0.0        0.0        0.0        0.0        0.0        0.0      1.0       5.4      23.5      28.4      33.2    362.74
     6     4  1996    76     3     243.7     0.0      0.0    0.0    0.0    0.0      0.0      0.0   -9.90      0.9      0.3     29      4.8      4.8   100      5.7     5.0      89     19.7    0.61     -9      0      0      0      0    74.7    74.7      0     0.89      4.8      4.8      4.8   100    17.7     6.078     9.2    0.560   11.201      98        0.13    0.000    0.000     243.7    113.8    0.61   113.8     249.9     134.1     124.2      98.3      83.5      61.0    0.000     0.000     0.000     0.000     0.000    0.61     0.00    0.00      0   -9.90   -9.00        8.5       15.8       21.4       22.0       22.0       22.0       22.0       22.0       22.0       22.0       22.0       22.0        0.0        0.0        0.0        0.0        0.0        0.0        0.0        0.0        0.0        0.0        0.0        0.0      0.0       5.4      25.4      29.8      34.2    362.74
     7     4  1996    77     3     237.0     0.0      0.0    0.0    0.0    0.0      0.0      0.0   -9.90      1.2      0.1     11      6.5      6.5   100      7.8     6.7      86     19.9    0.61     -9      0      0      0      0    74.7    74.7      0     0.89      6.5      6.5      6.5   100    17.7     6.235    10.4    0.646   12.923      98        0.14    0.000    0.000     237.0    107.1    0.61   107.1     249.9     134.1     129.6     102.7      86.8      61.0    0.000     0.000     0.000     0.000     0.000    0.61     0.00    0.00      0   -9.90   -9.00        8.3       11.7       19.0       22.0       22.0       22.0       22.0       22.0       22.0       22.0       22.0       22.0        0.0        0.0        0.0        0.0        0.0        0.0        0.0        0.0        0.0        0.0        0.0        0.0      0.0       7.4      25.7      30.5      35.2    362.74
     8     4  1996    78     3     263.5     0.0     34.7    0.0   34.7    0.0      0.0      0.0   -9.90      1.3      1.3    100      7.0      7.0   100      8.3     8.3     100     19.9    0.61     -9      0      0      0      0    74.7    74.7      0     0.89      7.0      7.0      7.0   100    17.7     6.392    11.6    0.743   14.859      99        0.16    0.000    0.000     263.5    133.6    0.61   133.6     249.9     134.1     131.1     103.8      87.7      61.0    0.000     0.000     0.000     0.000     0.000    0.61     0.00    0.00      0   -9.90   -9.00       34.7       11.8       19.0       22.0       22.0       22.0       22.0       22.0       22.0       22.0       22.0       22.0        0.0        0.0        0.0        0.0        0.0        0.0        0.0        0.0        0.0        0.0        0.0        0.0      0.0       7.9      25.7      30.8      35.9    362.74
     9     4  1996    79     3     255.6     0.0      0.0    0.0    0.0    0.0      0.0      0.0   -9.90      1.2      1.2    100      6.6      6.6   100      7.8     7.8     100     20.1    0.61     -9      0      0      0      0    74.8    74.8      0     0.89      6.6      6.6      6.6   100    17.7     6.549    12.9    0.847   16.950      99        0.18    0.000    0.000     255.6    125.7    0.61   125.7     249.9     134.1     129.9     102.9      87.0      61.0    0.000     0.000     0.000     0.000     0.000    0.61     0.00    0.00      0   -9.90   -9.00       16.2       20.6       20.9       22.0       22.0       22.0       22.0       22.0       22.0       22.0       22.0       22.0        0.0        0.0        0.0        0.0        0.0        0.0        0.0        0.0        0.0        0.0        0.0        0.0      0.0       7.5      26.2      31.1      36.0    362.74
    10     4  1996    80     3     248.4     0.0      0.0    0.0    0.0    0.0      0.0      0.0   -9.90      1.1      1.1    100      6.1      6.1   100      7.3     7.3     100     20.3    0.61     -9      0      0      0      0    74.8    74.8      0     0.89      6.1      6.1      6.1   100    17.7     6.706    14.3    0.956   19.122      99        0.20    0.000    0.000     248.4    118.5    0.61   118.5     249.9     134.1     128.4     101.7      86.1      61.0    0.000     0.000     0.000     0.000     0.000    0.61     0.00    0.00      0   -9.90   -9.00       10.3       19.1       20.9       22.0       22.0       22.0       22.0       22.0       22.0       22.0       22.0       22.0        0.0        0.0        0.0        0.0        0.0        0.0        0.0        0.0        0.0        0.0        0.0        0.0      0.0       6.9      26.6      30.8      35.0    362.74
    11     4  1996    81     3     238.8     0.0      0.0    0.0    0.0    0.0      0.0      0.0   -9.90      1.5      1.5    100      8.1      8.1   100      9.6     9.6     100     20.4    0.61     -9      0      0      0      0    74.8    74.8      0     0.89      8.1      8.1      8.1   100    17.7     6.862    15.6    1.069   21.377      99        0.22    0.000    0.000     238.8    108.9    0.61   108.9     249.9     134.1     134.1     106.5      89.8      61.0    0.000     0.000     0.000     0.000     0.000    0.61     0.00    0.00      0   -9.90   -9.00        8.9       14.9       17.4       21.5       22.0       22.0       22.0       22.0       22.0       22.0       22.0       22.0        0.0        0.0        0.0        0.0        0.0        0.0        0.0        0.0        0.0        0.0        0.0        0.0      0.0       9.2      26.7      31.2      35.8    362.74
    12     4  1996    82     3     264.5     0.0     34.8    0.0   34.8    0.0      0.0      0.0   -9.90      1.4      1.4    100      7.7      7.7   100      9.1     9.1     100     20.6    0.61     -9      0      0      0      0    74.8    74.8      0     0.89      7.7      7.7      7.7   100    17.7     7.019    16.9    1.186   23.714      99        0.24    0.000    0.000     264.5    134.6    0.61   134.6     249.9     134.1     133.1     105.4      89.0      61.0    0.000     0.000     0.000     0.000     0.000    0.61     0.00    0.00      0   -9.90   -9.00       34.6       14.9       17.4       21.5       22.0       22.0       22.0       22.0       22.0       22.0       22.0       22.0        0.0        0.0        0.0        0.0        0.0        0.0        0.0        0.0        0.0        0.0        0.0        0.0      0.0       8.7      27.3      31.3      35.3    362.74
    13     4  1996    83     3     256.5     0.0      0.0    0.0    0.0    0.0      0.0      0.0   -9.90      1.2      1.2    100      6.8      6.8   100      8.0     8.0     100     20.4    0.61     -9      0      0      0      0    74.9    74.9      0     0.88      6.8      6.8      6.8   100    17.7     7.175    18.2    1.307   26.133      99        0.26    0.000    0.000     256.5    126.6    0.61   126.6     249.9     134.1     130.5     103.4      87.4      61.0    0.000     0.000     0.000     0.000     0.000    0.61     0.00    0.00      0   -9.90   -9.00       16.2       20.6       22.0       21.8       22.0       22.0       22.0       22.0       22.0       22.0       22.0       22.0        0.0        0.0        0.0        0.0        0.0        0.0        0.0        0.0        0.0        0.0        0.0        0.0      0.0       7.7      26.8      31.0      35.3    362.74
    14     4  1996    84     3     248.7     0.0      0.0    0.0    0.0    0.0      0.0      0.0   -9.90      1.2      1.2    100      6.6      6.6   100      7.8     7.8     100     19.6    0.61     -9      0      0      0      0    74.9    74.9      0     0.88      6.6      6.6      6.6   100    17.7     7.332    19.5    1.432   28.634      99        0.28    0.000    0.000     248.7    118.8    0.61   118.8     249.9     134.1     129.8     102.8      86.9      61.0    0.000     0.000     0.000     0.000     0.000    0.61     0.00    0.00      0   -9.90   -9.00       10.3       18.7       22.0       21.8       22.0       22.0       22.0       22.0       22.0       22.0       22.0       22.0        0.0        0.0        0.0        0.0        0.0        0.0        0.0        0.0        0.0        0.0        0.0        0.0      0.0       7.4      25.3      30.3      35.3    362.74
    15     4  1996    85     3     240.6     0.0      0.0    0.0    0.0    0.0      0.0      0.0   -9.90      1.3      1.3    100      6.9      6.9   100      8.1     8.1     100     19.1    0.61     -9      0      0      0      0    74.9    74.9      0     0.88      6.9      6.9      6.9   100    17.7     7.488    20.8    1.561   31.217      99        0.30    0.000    0.000     240.6    110.7    0.61   110.7     249.9     134.1     130.8     103.6      87.6      61.0    0.000     0.000     0.000     0.000     0.000    0.61     0.00    0.00      0   -9.90   -9.00        9.0       14.4       19.3       21.8       22.0       22.0       22.0       22.0       22.0       22.0       22.0       22.0        0.0        0.0        0.0        0.0        0.0        0.0        0.0        0.0        0.0        0.0        0.0        0.0      0.0       7.8      24.2      29.2      34.2    362.74
    16     4  1996    86     3     264.0     0.0     31.6    0.0   31.6    0.0      0.0      0.0   -9.90      1.3      1.3    100      6.9      6.9   100      8.1     8.1     100     19.3    0.61     -9      0      0      0      0    74.9    74.9      0     0.88      6.9      6.9      6.9   100    17.7     7.644    22.2    1.694   33.881      99        0.32    0.000    0.000     264.0    134.2    0.61   134.2     249.9     134.1     130.7     103.5      87.5      61.0    0.000     0.000     0.000     0.000     0.000    0.61     0.00    0.00      0   -9.90   -9.00       34.3       12.6       19.3       21.8       22.0       22.0       22.0       22.0       22.0       22.0       22.0       22.0        0.0        0.0        0.0        0.0        0.0        0.0        0.0        0.0        0.0        0.0        0.0        0.0      0.0       7.8      24.6      29.4      34.2    362.74
    17     4  1996    87     3     256.7     0.0      0.0    0.0    0.0    0.0      0.0      0.0   -9.90      1.1      1.1    100      6.2      6.2   100      7.4     7.4     100     20.2    0.61     -9      0      0      0      0    74.9    74.9      0     0.88      6.2      6.2      6.2   100    17.7     7.800    23.5    1.831   36.626      99        0.35    0.000    0.000     256.7    126.8    0.61   126.8     249.9     134.1     128.8     102.0      86.3      61.0    0.000     0.000     0.000     0.000     0.000    0.61     0.00    0.00      0   -9.90   -9.00       16.3       21.0       21.6       21.8       22.0       22.0       22.0       22.0       22.0       22.0       22.0       22.0        0.0        0.0        0.0        0.0        0.0        0.0        0.0        0.0        0.0        0.0        0.0        0.0      0.0       7.1      26.4      31.8      37.3    362.74
[...]
    19     4  1996    89     3     241.2     0.0      0.0    0.0    0.0    0.0      0.0      0.0   -9.90      1.3      1.3    100      6.9      6.9   100      8.1     8.1     100     20.1    0.61     -9      0      0      0      0    74.9    74.9      0     0.88      6.9      6.9      6.9   100    17.7     8.111    26.1    2.118   42.362      99        0.39    0.000    0.000     241.2    111.3    0.61   111.3     249.9     134.1     130.8     103.6      87.6      61.0    0.000     0.000     0.000     0.000     0.000    0.61     0.00    0.00      0   -9.90   -9.00        9.1       15.3       19.0       21.8       22.0       22.0       22.0       22.0       22.0       22.0       22.0       22.0        0.0        0.0        0.0        0.0        0.0        0.0        0.0        0.0        0.0        0.0        0.0        0.0      0.0       7.8      26.3      30.6      35.0    362.74
    20     4  1996    90     3     263.9     0.0     30.9    0.0   30.9    0.0      0.0      0.0   -9.90      1.3      1.3    100      7.0      7.0   100      8.3     8.3     100     19.1    0.61     -9      0      0      0      0    74.9    74.9      0     0.88      7.0      7.0      7.0   100    17.7     8.266    27.4    2.268   45.351      99        0.41    0.000    0.000     263.9    134.0    0.61   134.0     249.9     134.1     131.3     103.9      87.8      61.0    0.000     0.000     0.000     0.000     0.000    0.61     0.00    0.00      0   -9.90   -9.00       33.7       13.3       19.0       21.8       22.0       22.0       22.0       22.0       22.0       22.0       22.0       22.0        0.0        0.0        0.0        0.0        0.0        0.0        0.0        0.0        0.0        0.0        0.0        0.0      0.0       8.0      24.3      28.4      32.4    362.74
    21     4  1996    91     3     255.8     0.0      0.0    0.0    0.0    0.0      0.0      0.0   -9.90      1.3      1.3    100      6.8      6.8   100      8.1     8.1     100     18.9    0.61     -9      0      0      0      0    75.0    75.0      0     0.88      6.8      6.8      6.8   100    17.7     8.421    28.7    2.421   48.421      99        0.43    0.000    0.000     255.8    125.9    0.61   125.9     249.9     134.1     130.8     103.6      87.6      61.0    0.000     0.000     0.000     0.000     0.000    0.61     0.00    0.00      0   -9.90   -9.00       16.2       20.4       21.4       21.8       22.0       22.0       22.0       22.0       22.0       22.0       22.0       22.0        0.0        0.0        0.0        0.0        0.0        0.0        0.0        0.0        0.0        0.0        0.0        0.0      0.0       7.8      23.9      27.8      31.7    362.74
    22     4  1996    92     3     247.6     0.0      0.0    0.0    0.0    0.0      0.0      0.0   -9.90      1.3      1.3    100      6.9      6.9   100      8.2     8.2     100     19.2    0.61     -9      0      0      0      0    75.0    75.0      0     0.88      6.9      6.9      6.9   100    17.7     8.576    30.1    2.579   51.572      99        0.45    0.000    0.000     247.6    117.7    0.61   117.7     249.9     134.1     131.0     103.8      87.7      61.0    0.000     0.000     0.000     0.000     0.000    0.61     0.00    0.00      0   -9.90   -9.00       10.3       18.1       21.4       21.8       22.0       22.0       22.0       22.0       22.0       22.0       22.0       22.0        0.0        0.0        0.0        0.0        0.0        0.0        0.0        0.0        0.0        0.0        0.0        0.0      0.0       7.9      24.5      28.1      31.7    362.74
    23     4  1996    93     3     264.3     0.0     24.6    0.0   24.6    0.0      0.0      0.0   -9.90      1.2      1.2    100      6.6      6.6   100      7.8     7.8     100     19.3    0.61     -9      0      0      0      0    75.0    75.0      0     0.88      6.6      6.6      6.6   100    17.7     8.731    31.4    2.740   54.803      99        0.47    0.000    0.000     264.3    134.4    0.61   134.4     249.9     134.1     130.2     103.1      87.2      61.0    0.000     0.000     0.000     0.000     0.000    0.61     0.00    0.00      0   -9.90   -9.00       28.6       16.5       21.4       21.8       22.0       22.0       22.0       22.0       22.0       22.0       22.0       22.0        0.0        0.0        0.0        0.0        0.0        0.0        0.0        0.0        0.0        0.0        0.0        0.0      0.0       7.6      24.6      28.5      32.4    362.74
    24     4  1996    94     3     255.3     0.0      0.0    0.0    0.0    0.0      0.0      0.0   -9.90      1.4      1.4    100      7.7      7.7   100      9.1     9.1     100     19.6    0.61     -9      0      0      0      0    75.0    75.0      0     0.87      7.7      7.7      7.7   100    17.7     8.886    32.7    2.906   58.116      99        0.50    0.000    0.000     255.3    125.4    0.61   125.4     249.9     134.1     133.4     105.7      89.1      61.0    0.000     0.000     0.000     0.000     0.000    0.61     0.00    0.00      0   -9.90   -9.00       16.0       19.4       22.0       21.9       22.0       22.0       22.0       22.0       22.0       22.0       22.0       22.0        0.0        0.0        0.0        0.0        0.0        0.0        0.0        0.0        0.0        0.0        0.0        0.0      0.0       8.8      25.2      29.0      32.8    362.74
    25     4  1996    95     3     247.4     0.0      0.0    0.0    0.0    0.0      0.0      0.0   -9.90      1.2      1.2    100      6.7      6.7   100      7.9     7.9     100     20.0    0.61     -9      0      0      0      0    75.0    75.0      0     0.87      6.7      6.7      6.7   100    17.7     9.040    34.0    3.075   61.508      99        0.52    0.000    0.000     247.4    117.5    0.61   117.5     249.9     134.1     130.3     103.2      87.3      61.0    0.000     0.000     0.000     0.000     0.000    0.61     0.00    0.00      0   -9.90   -9.00       10.2       17.4       22.0       21.9       22.0       22.0       22.0       22.0       22.0       22.0       22.0       22.0        0.0        0.0        0.0        0.0        0.0        0.0        0.0        0.0        0.0        0.0        0.0        0.0      0.0       7.6      26.0      28.8      31.5    362.74
    26     4  1996    96     3     239.6     0.0      0.0    0.0    0.0    0.0      0.0      0.0   -9.90      1.2      1.2    100      6.6      6.6   100      7.8     7.8     100     19.6    0.61     -9      0     -9      0      0    74.7    74.7      0     0.87      6.6      6.6      6.6   100    17.7     9.194    35.3    3.249   64.974      99        0.54    0.000    0.000     239.6    109.7    0.61   109.7     249.9     134.1     130.2     103.1      87.2      61.0    0.000     0.000     0.000     0.000     0.000    0.61     0.00    0.00      0   -9.90   -9.00        8.9       13.1       19.7       21.9       22.0       22.0       22.0       22.0       22.0       22.0       22.0       22.0        0.0        0.0        0.0        0.0        0.0        0.0        0.0        0.0        0.0        0.0        0.0        0.0      0.0       7.6      25.3      28.6      32.0    362.74
    27     4  1996    97     3     263.4     0.0     32.2    0.0   32.2    0.0      0.0      0.0   -9.90      1.4      1.4    100      7.1      7.1   100      8.4     8.4     100     19.8    0.61     -9      0     -9      0      0    74.3    74.3      0     0.86      7.1      7.1      7.1   100    17.7     9.346    36.7    3.426   68.510      99        0.56    0.000    0.000     263.4    133.5    0.61   133.5     249.9     134.1     132.0     104.5      88.3      61.0    0.000     0.000     0.000     0.000     0.000    0.61     0.00    0.00      0   -9.90   -9.00       34.6       11.2       19.7       21.9       22.0       22.0       22.0       22.0       22.0       22.0       22.0       22.0        0.0        0.0        0.0        0.0        0.0        0.0        0.0        0.0        0.0        0.0        0.0        0.0      0.0       8.2      25.6      28.8      32.0    362.74
    28     4  1996    98     3     254.6     0.0      0.0    0.0    0.0    0.0      0.0      0.0   -9.90      1.4      1.4    100      7.4      7.4   100      8.8     8.8     100     20.1    0.61     -9      0     -9      0      0    74.0    74.0      0     0.85      7.4      7.4      7.4   100    17.7     9.496    38.0    3.606   72.117      99        0.58    0.000    0.000     254.6    124.7    0.61   124.7     249.9     134.1     133.1     105.4      89.0      61.0    0.000     0.000     0.000     0.000     0.000    0.61     0.00    0.00      0   -9.90   -9.00       16.0       19.8       21.0       21.9       22.0       22.0       22.0       22.0       22.0       22.0       22.0       22.0        0.0        0.0        0.0        0.0        0.0        0.0        0.0        0.0        0.0        0.0        0.0        0.0      0.0       8.6      26.2      28.9      31.7    362.74
    29     4  1996    99     3     247.1     0.0      0.0    0.0    0.0    0.0      0.0      0.0   -9.90      1.2      1.2    100      6.2      6.2   100      7.5     7.5     100     19.2    0.61     -9      0     -9      0      0    73.6    73.6      0     0.84      6.2      6.2      6.2   100    17.7     9.646    39.3    3.790   75.791      99        0.60    0.000    0.000     247.1    117.2    0.61   117.2     249.9     134.1     129.7     102.7      86.9      61.0    0.000     0.000     0.000     0.000     0.000    0.61     0.00    0.00      0   -9.90   -9.00       10.1       18.1       21.0       21.9       22.0       22.0       22.0       22.0       22.0       22.0       22.0       22.0        0.0        0.0        0.0        0.0        0.0        0.0        0.0        0.0        0.0        0.0        0.0        0.0      0.0       7.4      24.5      28.1      31.6    362.74
    30     4  1996   100     3     242.1     1.2      0.0    0.0    1.2    0.0      0.0      0.0   -9.90      1.1      1.1    100      5.1      5.1   100      6.2     6.2     100     19.4    0.61     -9      0     -9      0      0    73.1    73.1      0     0.83      5.1      5.1      5.1   100    17.7     9.793    40.6    3.977   79.531      99        0.63    0.000    0.000     242.1    112.2    0.61   112.2     249.9     134.1     126.3     100.0      84.8      61.0    0.000     0.000     0.000     0.000     0.000    0.61     0.00    0.00      0   -9.90   -9.00        9.7       13.9       20.7       21.9       22.0       22.0       22.0       22.0       22.0       22.0       22.0       22.0        0.0        0.0        0.0        0.0        0.0        0.0        0.0        0.0        0.0        0.0        0.0        0.0      1.2       6.1      24.8      28.2      31.7    362.74
     1     5  1996   101     4     262.6     0.0     28.1    0.0   28.1    0.0      0.0      0.0   -9.90      1.3      1.3    100      6.2      6.2   100      7.6     7.6     100     19.6    0.61     -9      0     -9      0      0    72.7    72.7      0     0.82      6.2      6.2      6.2   100    17.7     9.939    41.9    4.167   83.334      99        0.65    0.000    0.000     262.6    132.7    0.61   132.7     249.9     134.1     130.2     103.1      87.2      61.0    0.000     0.000     0.000     0.000     0.000    0.61     0.00    0.00      0   -9.90   -9.00       31.4       12.7       20.7       21.9       22.0       22.0       22.0       22.0       22.0       22.0       22.0       22.0        0.0        0.0        0.0        0.0        0.0        0.0        0.0        0.0        0.0        0.0        0.0        0.0      0.0       7.6      25.3      28.5      31.6    362.74
     2     5  1996   102     4     254.7     0.0      0.0    0.0    0.0    0.0      0.0      0.0   -9.90      1.4      1.4    100      6.5      6.5   100      7.9     7.9     100     19.9    0.61     -9      0     -9      0      0    72.2    72.2      0     0.81      6.5      6.5      6.5   100    17.7    10.083    43.2    4.360   87.199      99        0.67    0.000    0.000     254.7    124.8    0.61   124.8     249.9     134.1     131.4     104.0      87.9      61.0    0.000     0.000     0.000     0.000     0.000    0.61     0.00    0.00      0   -9.90   -9.00       16.0       20.1       20.7       21.9       22.0       22.0       22.0       22.0       22.0       22.0       22.0       22.0        0.0        0.0        0.0        0.0        0.0        0.0        0.0        0.0        0.0        0.0        0.0        0.0      0.0       8.0      25.7      28.8      31.9    362.74
     3     5  1996   103     4     246.1     0.0      0.0    0.0    0.0    0.0      0.0      0.0   -9.90      1.6      1.6    100      7.0      7.0   100      8.5     8.5     100     19.4    0.61     -9      0     -9      0      0    71.7    71.7      0     0.80      7.0      7.0      7.0   100    17.7    10.225    44.6    4.556   91.123      99        0.69    0.000    0.000     246.1    116.3    0.61   116.3     249.9     134.1     133.2     105.5      89.0      61.0    0.000     0.000     0.000     0.000     0.000    0.61     0.00    0.00      0   -9.90   -9.00       10.0       17.6       20.7       21.9       22.0       22.0       22.0       22.0       22.0       22.0       22.0       22.0        0.0        0.0        0.0        0.0        0.0        0.0        0.0        0.0        0.0        0.0        0.0        0.0      0.0       8.7      24.9      28.3      31.7    362.74
     4     5  1996   104     4     263.9     0.0     26.4    0.0   26.4    0.0      0.0      0.0   -9.90      1.6      1.6    100      7.0      7.0   100      8.6     8.6     100     19.6    0.61     -9      0     -9      0      0    71.1    71.1      0     0.79      7.0      7.0      7.0   100    17.7    10.366    45.9    4.755   95.103      99        0.71    0.000    0.000     263.9    134.1    0.61   134.1     249.9     134.1     133.6     105.8      89.2      61.0    0.000     0.000     0.000     0.000     0.000    0.61     0.00    0.00      0   -9.90   -9.00       29.8       15.6       20.7       21.9       22.0       22.0       22.0       22.0       22.0       22.0       22.0       22.0        0.0        0.0        0.0        0.0        0.0        0.0        0.0        0.0        0.0        0.0        0.0        0.0      0.0       8.8      25.1      28.8      32.4    362.74
     5     5  1996   105     4     254.8     0.0      0.0    0.0    0.0    0.0      0.0      0.0   -9.90      1.8      1.8    100      7.3      7.3   100      9.1     9.1     100     19.6    0.61     -9      0     -9      0      0    70.4    70.4      0     0.78      7.3      7.3      7.3   100    17.7    10.503    47.2    4.957   99.136      99        0.73    0.000    0.000     254.8    125.0    0.61   125.0     249.9     134.1     134.1     107.1      90.2      61.0    0.000     0.000     0.000     0.000     0.000    0.61     0.00    0.00      0   -9.90   -9.00       15.7       19.8       21.6       21.9       22.0       22.0       22.0       22.0       22.0       22.0       22.0       22.0        0.0        0.0        0.0        0.0        0.0        0.0        0.0        0.0        0.0        0.0        0.0        0.0      0.0       9.4      25.3      28.6      32.0    362.74
     6     5  1996    -9     0     250.7     0.0      0.0    0.0    0.0    0.0      0.0      0.0   -9.90      4.9      4.1     84      0.0      0.0   100      4.9     4.1      84     19.8    0.61     -9     -9     -9      0     -9     0.0     0.0      0    -9.00      0.0      0.0      0.0   100    17.7    10.503    48.5    5.095  101.903      99        0.75    0.000    0.000     250.7    120.9    0.61   120.9     249.9     134.1     134.1     104.1      90.2      61.0    0.000     0.000     0.000     0.000     0.000    0.61     0.00    0.00      0   -9.90   -9.00       11.6       19.8       21.6       21.9       22.0       22.0       22.0       22.0       22.0       22.0       22.0       22.0        0.0        0.0        0.0        0.0        0.0        0.0        0.0        0.0        0.0        0.0        0.0        0.0      0.0       8.1      25.5      27.8      30.1    362.74
     7     5  1996    -9     0     247.9     0.0      0.0    0.0    0.0    0.0      0.0      0.0   -9.90     11.0      2.9     26      0.0      0.0   100     11.0     2.9      26     20.9    0.61     -9     -9     -9      0     -9     0.0     0.0      0    -9.00      0.0      0.0      0.0   100    17.7    10.503    49.0    5.147  102.934      99        0.76    0.000    0.000     247.9    118.0    0.61   118.0     249.9     134.1     134.1     108.5      90.2      61.0    0.000     0.000     0.000     0.000     0.000    0.61     0.00    0.00      0   -9.90   -9.00        8.7       19.8       21.6       21.9       22.0       22.0       22.0       22.0       22.0       22.0       22.0       22.0        0.0        0.0        0.0        0.0        0.0        0.0        0.0        0.0        0.0        0.0        0.0        0.0      0.0      10.0      27.7      30.0      32.4    362.74
     8     5  1996    -9     0     246.1     0.0      0.0    0.0    0.0    0.0      0.0      0.0   -9.90     11.8      1.8     15      0.0      0.0   100     11.8     1.8      15     20.9    0.61     -9     -9     -9      0     -9     0.0     0.0      0    -9.00      0.0      0.0      0.0   100    17.7    10.503    49.0    5.147  102.934      99        0.76    0.000    0.000     246.1    116.2    0.61   116.2     249.9     134.1     134.1     109.9      90.2      61.0    0.000     0.000     0.000     0.000     0.000    0.61     0.00    0.00      0   -9.90   -9.00        6.9       19.8       21.6       21.9       22.0       22.0       22.0       22.0       22.0       22.0       22.0       22.0        0.0        0.0        0.0        0.0        0.0        0.0        0.0        0.0        0.0        0.0        0.0        0.0      0.0      10.7      27.8      30.5      33.1    362.74
     9     5  1996    -9     0     245.0     0.0      0.0    0.0    0.0    0.0      0.0      0.0   -9.90     10.4      1.1     11      0.0      0.0   100     10.4     1.1      11     20.7    0.61     -9     -9     -9      0     -9     0.0     0.0      0    -9.00      0.0      0.0      0.0   100    17.7    10.503    49.0    5.147  102.934      99        0.76    0.000    0.000     245.0    115.1    0.61   115.1     249.9     134.1     134.1     107.1      90.2      61.0    0.000     0.000     0.000     0.000     0.000    0.61     0.00    0.00      0   -9.90   -9.00        5.8       19.8       21.6       21.9       22.0       22.0       22.0       22.0       22.0       22.0       22.0       22.0        0.0        0.0        0.0        0.0        0.0        0.0        0.0        0.0        0.0        0.0        0.0        0.0      0.0       9.4      27.4      30.8      34.1    362.74
    10     5  1996    -9     0     244.1     0.0      0.0    0.0    0.0    0.0      0.0      0.0   -9.90     10.9      0.9      8      0.0      0.0   100     10.9     0.9       8     20.2    0.61     -9     -9     -9      0     -9     0.0     0.0      0    -9.00      0.0      0.0      0.0   100    17.7    10.503    49.0    5.147  102.934      99        0.76    0.000    0.000     244.1    114.2    0.61   114.2     249.9     134.1     134.1     108.1      90.2      61.0    0.000     0.000     0.000     0.000     0.000    0.61     0.00    0.00      0   -9.90   -9.00        5.0       19.7       21.6       21.9       22.0       22.0       22.0       22.0       22.0       22.0       22.0       22.0        0.0        0.0        0.0        0.0        0.0        0.0        0.0        0.0        0.0        0.0        0.0        0.0      0.0       9.9      26.4      30.5      34.6    362.74
