AquaCrop 7.2 (August 2024) - Output created on (date) : 23-12-2024   at (time) : 03:31:28

    RunNr     Day1   Month1    Year1     Rain      ETo       GD     CO2      Irri   Infilt   Runoff    Drain   Upflow        E     E/Ex       Tr      TrW   Tr/Trx    SaltIn   SaltOut    SaltUp  SaltProf     Cycle   SaltStr  FertStr  WeedStr  TempStr   ExpStr   StoStr  BioMass  Brelative   HI    Y(dry)  Y(fresh)    WPet      Bin     Bout     DayN   MonthN    YearN
                                           mm       mm  degC.day    ppm        mm       mm       mm       mm       mm       mm        %       mm       mm        %    ton/ha    ton/ha    ton/ha    ton/ha      days       %        %        %        %        %        %    ton/ha        %       %    ton/ha   ton/ha    kg/m3   ton/ha   ton/ha
      Day        7        2     1997      0.0      4.6     17.4   363.88      0.0      0.0      0.0      0.0      0.0      3.7       73      0.0      0.0       -9     0.000     0.000     0.000     0.000       -9        0        0        0        0        0        0     0.000       -9     -9.9       -9       -9       -9       -9    0.000    0.000        7        2     1997  idealPro.PRO
      Day        8        2     1997      0.1      4.5     18.1   363.88      0.0      0.1      0.0      0.0      0.0      3.7       73      0.0      0.0       -9     0.000     0.000     0.000     0.000       -9        0        0        0        0        0        0     0.000       -9     -9.9       -9       -9       -9       -9    0.000    0.000        8        2     1997  idealPro.PRO
      Day        9        2     1997      0.1      4.8     19.2   363.88      0.0      0.1      0.0      0.0      0.0      3.5       65      0.0      0.0       -9     0.000     0.000     0.000     0.000       -9        0        0        0        0        0        0     0.000       -9     -9.9       -9       -9       -9       -9    0.000    0.000        9        2     1997  idealPro.PRO
      Day       10        2     1997      0.1      4.8     19.0   363.88     15.8     15.9      0.0      0.0      0.0      5.3      100      0.0      0.0       -9     0.000     0.000     0.000     0.000       -9        0        0        0        0        0        0     0.000       -9     -9.9       -9       -9       -9       -9    0.000    0.000       10        2     1997  idealPro.PRO
      Day       11        2     1997      0.0      4.8     18.0   363.88      0.0      0.0      0.0      0.0      0.0      4.5       85      0.0      0.0       -9     0.000     0.000     0.000     0.000       -9        0        0        0        0        0        0     0.000       -9     -9.9       -9       -9       -9       -9    0.000    0.000       11        2     1997  idealPro.PRO
      Day       12        2     1997      1.1      4.7     19.0   363.88      0.0      1.1      0.0      0.0      0.0      4.1       80      0.0      0.0       -9     0.000     0.000     0.000     0.000       -9        0        0        0        0        0        0     0.000       -9     -9.9       -9       -9       -9       -9    0.000    0.000       12        2     1997  idealPro.PRO
      Day       13        2     1997      0.1      4.9     19.2   363.88      0.0      0.1      0.0      0.0      0.0      3.4       62      0.0      0.0       -9     0.000     0.000     0.000     0.000       -9        0        0        0        0        0        0     0.000       -9     -9.9       -9       -9       -9       -9    0.000    0.000       13        2     1997  idealPro.PRO
      Day       14        2     1997      0.0      4.8     18.4   363.88     16.2     16.2      0.0      0.0      0.0      5.3      100      0.0      0.0       -9     0.000     0.000     0.000     0.000       -9        0        0        0        0        0        0     0.000       -9     -9.9       -9       -9       -9       -9    0.000    0.000       14        2     1997  idealPro.PRO
      Day       15        2     1997      0.0      4.9     18.8   363.88      0.0      0.0      0.0      0.1      0.0      4.6       85      0.0      0.0       -9     0.000     0.000     0.000     0.000       -9        0        0        0        0        0        0     0.000       -9     -9.9       -9       -9       -9       -9    0.000    0.000       15        2     1997  idealPro.PRO
      Day       16        2     1997      0.0      5.0     18.2   363.88      0.0      0.0      0.0      0.0      0.0      2.6       48      0.0      0.0       -9     0.000     0.000     0.000     0.000       -9        0        0        0        0        0        0     0.000       -9     -9.9       -9       -9       -9       -9    0.000    0.000       16        2     1997  idealPro.PRO
      Day       17        2     1997      0.0      4.7     18.0   363.88      0.0      0.0      0.0      0.0      0.0      1.7       33      0.0      0.0       -9     0.000     0.000     0.000     0.000       -9        0        0        0        0        0        0     0.000       -9     -9.9       -9       -9       -9       -9    0.000    0.000       17        2     1997  idealPro.PRO
      Day       18        2     1997      0.0      4.9     18.0   363.88      0.0      0.0      0.0      0.0      0.0      1.3       25      0.1      0.1      100     0.000     0.000     0.000     0.000        1        0        0        0        0        0        0     0.002      100      0.0       -9       -9       -9       -9    0.000    0.000       18        2     1997  idealPro.PRO
      Day       19        2     1997      0.1      4.9     18.6   363.88      0.0      0.1      0.0      0.0      0.0      2.1       39      0.1      0.1      100     0.000     0.000     0.000     0.000        2        0        0        0        0        1        0     0.003      100      0.0       -9       -9       -9       -9    0.000    0.000       19        2     1997  idealPro.PRO
      Day       20        2     1997      0.0      5.0     18.6   363.88      0.0      0.0      0.0      0.0      0.0      1.4       26      0.1      0.1      100     0.000     0.000     0.000     0.000        3        0        0        0        0        3        0     0.003       99      0.0       -9       -9       -9       -9    0.000    0.000       20        2     1997  idealPro.PRO
      Day       21        2     1997      1.2      4.7     19.0   363.88      0.0      1.2      0.0      0.0      0.0      2.0       39      0.1      0.1      100     0.000     0.000     0.000     0.000        4        0        0        0        0        3        0     0.004       98      0.0       -9       -9       -9       -9    0.000    0.000       21        2     1997  idealPro.PRO
      Day       22        2     1997      0.9      5.1     19.8   363.88      0.0      0.9      0.0      0.0      0.0      1.7       30      0.1      0.1      100     0.000     0.000     0.000     0.000        5        0        0        0        0        4        0     0.004       97      0.0       -9       -9       -9       -9    0.000    0.000       22        2     1997  idealPro.PRO
      Day       23        2     1997      0.1      4.7     20.0   363.88      0.0      0.1      0.0      0.0      0.0      0.8       15      0.1      0.1      100     0.000     0.000     0.000     0.000        6        0        0        0        0        4        0     0.005       96      0.0       -9       -9       -9       -9    0.000    0.000       23        2     1997  idealPro.PRO
      Day       24        2     1997      0.0      5.3     19.7   363.88      0.0      0.0      0.0      0.0      0.0      0.6       11      0.2      0.2      100     0.000     0.000     0.000     0.000        7        0        0        0        0        5        0     0.005       95      0.0       -9       -9       -9       -9    0.000    0.000       24        2     1997  idealPro.PRO
      Day       25        2     1997      1.0      5.3     19.8   363.88      0.0      1.0      0.0      0.0      0.0      1.5       26      0.2      0.2      100     0.000     0.000     0.000     0.000        8        0        0        0        0        6        0     0.006       94      0.0       -9       -9       -9       -9    0.000    0.000       25        2     1997  idealPro.PRO
      Day       26        2     1997      0.0      5.1     19.6   363.88      0.0      0.0      0.0      0.0      0.0      0.5        9      0.2      0.2      100     0.000     0.000     0.000     0.000        9        0        0        0        0        6        0     0.007       93      0.0       -9       -9       -9       -9    0.000    0.000       26        2     1997  idealPro.PRO
      Day       27        2     1997      0.0      5.2     18.9   363.88      0.0      0.0      0.0      0.0      0.0      0.4        8      0.2      0.2      100     0.000     0.000     0.000     0.000       10        0        0        0        0        7        0     0.008       91      0.0       -9       -9       -9       -9    0.000    0.000       27        2     1997  idealPro.PRO
      Day       28        2     1997      0.0      5.2     18.0   363.88      0.0      0.0      0.0      0.0      0.0      0.4        7      0.3      0.3      100     0.000     0.000     0.000     0.000       11        0        0        0        0        7        0     0.009       90      0.0       -9       -9       -9       -9    0.000    0.000       28        2     1997  idealPro.PRO
      Day        1        3     1997      0.0      5.1     18.8   363.88      0.0      0.0      0.0      0.0      0.0      0.4        7      0.3      0.3      100     0.000     0.000     0.000     0.000       12        0        0        0        0        7        0     0.010       89      0.0       -9       -9       -9       -9    0.000    0.000        1        3     1997  idealPro.PRO
      Day        2        3     1997      0.0      5.4     18.4   363.88      0.0      0.0      0.0      0.0      0.0      0.4        7      0.3      0.3      100     0.000     0.000     0.000     0.000       13        0        0        0        0        8        0     0.011       87      0.0       -9       -9       -9       -9    0.000    0.000        2        3     1997  idealPro.PRO
      Day        3        3     1997      0.0      5.2     19.0   363.88      0.0      0.0      0.0      0.0      0.0      0.4        7      0.4      0.4      100     0.000     0.000     0.000     0.000       14        0        0        0        0        8        0     0.013       86      0.0       -9       -9       -9       -9    0.000    0.000        3        3     1997  idealPro.PRO
      Day        4        3     1997      0.1      5.2     18.2   363.88      0.0      0.1      0.0      0.0      0.0      0.4        8      0.4      0.4      100     0.000     0.000     0.000     0.000       15        0        0        0        0        8        0     0.014       84      0.0       -9       -9       -9       -9    0.000    0.000        4        3     1997  idealPro.PRO
      Day        5        3     1997      0.0      5.2     18.4   363.88      0.0      0.0      0.0      0.0      0.0      0.3        6      0.5      0.5      100     0.000     0.000     0.000     0.000       16        0        0        0        0        9        0     0.016       83      0.0       -9       -9       -9       -9    0.000    0.000        5        3     1997  idealPro.PRO
      Day        6        3     1997      0.0      5.2     18.6   363.88      0.0      0.0      0.0      0.0      0.0      0.3        5      0.5      0.5      100     0.000     0.000     0.000     0.000       17        0        0        0        0        9        0     0.018       82      0.0       -9       -9       -9       -9    0.000    0.000        6        3     1997  idealPro.PRO
      Day        7        3     1997      0.0      6.0     18.7   363.88      0.0      0.0      0.0      0.0      0.0      0.3        5      0.7      0.7      100     0.000     0.000     0.000     0.000       18        0        0        0        0        9        0     0.020       80      0.0       -9       -9       -9       -9    0.000    0.000        7        3     1997  idealPro.PRO
      Day        8        3     1997      0.0      5.2     18.9   363.88     31.8     31.8      0.0      0.0      0.0      5.0      100      0.7      0.7      100     0.000     0.000     0.000     0.000       19        0        0        0        0        9        0     0.023       80      0.0       -9       -9       -9       -9    0.000    0.000        8        3     1997  idealPro.PRO
      Day        9        3     1997      0.0      5.1     19.1   363.88      0.0      0.0      0.0      0.3      0.0      4.4       90      0.8      0.8      100     0.000     0.000     0.000     0.000       20        0        0        0        0        8        0     0.026       80      0.0       -9       -9       -9       -9    0.000    0.000        9        3     1997  idealPro.PRO
      Day       10        3     1997      0.0      5.5     19.3   363.88      0.0      0.0      0.0      0.1      0.0      2.4       48      0.9      0.9      100     0.000     0.000     0.000     0.000       21        0        0        0        0        8        0     0.030       80      0.0       -9       -9       -9       -9    0.000    0.000       10        3     1997  idealPro.PRO
      Day       11        3     1997      0.0      5.5     19.4   363.88      0.0      0.0      0.0      0.0      0.0      1.4       29      1.1      1.1      100     0.000     0.000     0.000     0.000       22        0        0        0        0        8        0     0.034       80      0.0       -9       -9       -9       -9    0.000    0.000       11        3     1997  idealPro.PRO
      Day       12        3     1997      0.0      5.6     19.0   363.88      0.0      0.0      0.0      0.0      0.0      0.9       19      1.2      1.2      100     0.000     0.000     0.000     0.000       23        0        0        0        0        7        0     0.039       81      0.0       -9       -9       -9       -9    0.000    0.000       12        3     1997  idealPro.PRO
      Day       13        3     1997      0.0      5.8     19.4   363.88      0.0      0.0      0.0      0.0      0.0      0.6       13      1.4      1.4      100     0.000     0.000     0.000     0.000       24        0        0        0        0        7        0     0.044       81      0.0       -9       -9       -9       -9    0.000    0.000       13        3     1997  idealPro.PRO
      Day       14        3     1997      0.0      5.5     19.4   363.88      0.0      0.0      0.0      0.0      0.0      0.5       10      1.6      1.6      100     0.000     0.000     0.000     0.000       25        0        0        0        0        7        0     0.050       81      0.0       -9       -9       -9       -9    0.000    0.000       14        3     1997  idealPro.PRO
      Day       15        3     1997      0.3      5.7     19.2   363.88      0.0      0.3      0.0      0.0      0.0      0.9       20      1.8      1.8      100     0.000     0.000     0.000     0.000       26        0        0        0        0        7        0     0.057       81      0.0       -9       -9       -9       -9    0.000    0.000       15        3     1997  idealPro.PRO
      Day       16        3     1997      0.4      5.6     19.9   363.88      0.0      0.4      0.0      0.0      0.0      0.8       19      2.0      2.0      100     0.000     0.000     0.000     0.000       27        0        0        0        0        7        0     0.064       81      0.0       -9       -9       -9       -9    0.000    0.000       16        3     1997  idealPro.PRO
      Day       17        3     1997      0.3      5.5     19.6   363.88      0.0      0.3      0.0      0.0      0.0      0.5       15      2.2      2.2      100     0.000     0.000     0.000     0.000       28        0        0        0        0        7        0     0.071       80      0.0       -9       -9       -9       -9    0.000    0.000       17        3     1997  idealPro.PRO
      Day       18        3     1997      0.0      5.6     19.4   363.88      0.0      0.0      0.0      0.0      0.0      0.2        5      2.5      2.5      100     0.000     0.000     0.000     0.000       29        0        0        0        0        7        0     0.080       80      0.0       -9       -9       -9       -9    0.000    0.000       18        3     1997  idealPro.PRO
      Day       19        3     1997      0.0      5.6     19.4   363.88      0.0      0.0      0.0      0.0      0.0      0.1        4      2.8      2.8      100     0.000     0.000     0.000     0.000       30        0        0        0        0        7        0     0.088       81      0.0       -9       -9       -9       -9    0.000    0.000       19        3     1997  idealPro.PRO
      Day       20        3     1997      0.0      5.8     19.4   363.88      0.0      0.0      0.0      0.0      0.0      0.1        3      3.2      3.2      100     0.000     0.000     0.000     0.000       31        0        0        0        0        7        0     0.097       83      0.0       -9       -9       -9       -9    0.000    0.000       20        3     1997  idealPro.PRO
      Day       21        3     1997      3.5      5.1     20.1   363.88      0.0      3.5      0.0      0.0      0.0      2.4      100      3.0      3.0      100     0.000     0.000     0.000     0.000       32        0        0        0        0        7        0     0.105       86      0.0       -9       -9       -9       -9    0.000    0.000       21        3     1997  idealPro.PRO
      Day       22        3     1997      0.2      5.4     19.4   363.88     40.2     40.4      0.0      0.0      0.0      2.3      100      3.4      3.4      100     0.000     0.000     0.000     0.000       33        0        0        0        0        7        0     0.113       89      0.0       -9       -9       -9       -9    0.000    0.000       22        3     1997  idealPro.PRO
      Day       23        3     1997      0.0      5.7     18.9   363.88      0.0      0.0      0.0      0.0      0.0      2.2      100      3.9      3.9      100     0.000     0.000     0.000     0.000       34        0        0        0        0        7        0     0.120       91      0.0       -9       -9       -9       -9    0.000    0.000       23        3     1997  idealPro.PRO
      Day       24        3     1997      0.0      5.6     19.1   363.88      0.0      0.0      0.0      0.0      0.0      2.0      100      4.0      4.0      100     0.000     0.000     0.000     0.000       35        0        0        0        0        7        0     0.126       93      0.0       -9       -9       -9       -9    0.000    0.000       24        3     1997  idealPro.PRO
      Day       25        3     1997      0.0      5.4     18.8   363.88      0.0      0.0      0.0      0.0      0.0      0.8       48      4.0      4.0      100     0.000     0.000     0.000     0.000       36        0        0        0        0        7        0     0.131       94      0.0       -9       -9       -9       -9    0.000    0.000       25        3     1997  idealPro.PRO
      Day       26        3     1997      0.0      5.9     18.8   363.88      0.0      0.0      0.0      0.0      0.0      0.3       17      4.4      4.4      100     0.000     0.000     0.000     0.000       37        0        0        0        0        6        0     0.135       95      0.0       -9       -9       -9       -9    0.000    0.000       26        3     1997  idealPro.PRO
      Day       27        3     1997      0.0      5.7     18.9   363.88      0.0      0.0      0.0      0.0      0.0      0.2        9      4.4      4.4      100     0.000     0.000     0.000     0.000       38        0        0        0        0        6        0     0.138       96      0.0       -9       -9       -9       -9    0.000    0.000       27        3     1997  idealPro.PRO
      Day       28        3     1997      0.0      5.8     18.8   363.88      0.0      0.0      0.0      0.0      0.0      0.1        5      4.6      4.6      100     0.000     0.000     0.000     0.000       39        0        0        0        0        7        0     0.141       96      0.0       -9       -9       -9       -9    0.000    0.000       28        3     1997  idealPro.PRO
      Day       29        3     1997      0.0      5.9     19.6   363.88      0.0      0.0      0.0      0.0      0.0      0.1        5      4.7      4.7      100     0.000     0.000     0.000     0.000       40        0        0        0        0        7        0     0.143       96      0.0       -9       -9       -9       -9    0.000    0.000       29        3     1997  idealPro.PRO
      Day       30        3     1997      0.0      6.4     19.2   363.88     42.4     42.4      0.0      0.0      0.0      1.6      100      5.2      5.2      100     0.000     0.000     0.000     0.000       41        0        0        0        0        7        0     0.145       97      0.0       -9       -9       -9       -9    0.000    0.000       30        3     1997  idealPro.PRO
      Day       31        3     1997      0.0      5.8     19.2   363.88      0.0      0.0      0.0      0.0      0.0      1.3      100      4.8      4.8      100     0.000     0.000     0.000     0.000       42        0        0        0        0        6        0     0.147       97      0.0       -9       -9       -9       -9    0.000    0.000       31        3     1997  idealPro.PRO
      Day        1        4     1997      0.1      5.8     19.6   363.88      0.0      0.1      0.0      0.0      0.0      1.1       89      4.8      4.8      100     0.000     0.000     0.000     0.000       43        0        0        0        0        6        0     0.149       98      0.0       -9       -9       -9       -9    0.000    0.000        1        4     1997  idealPro.PRO
      Day        2        4     1997      0.0      6.0     20.0   363.88      0.0      0.0      0.0      0.0      0.0      0.4       27      5.1      5.1      100     0.000     0.000     0.000     0.000       44        0        0        0        0        6        0     0.150       98      0.0       -9       -9       -9       -9    0.000    0.000        2        4     1997  idealPro.PRO
      Day        3        4     1997      0.0      6.1     20.3   363.88      0.0      0.0      0.0      0.0      0.0      0.2       15      5.2      5.2      100     0.000     0.000     0.000     0.000       45        0        0        0        0        6        0     0.151       98      0.0       -9       -9       -9       -9    0.000    0.000        3        4     1997  idealPro.PRO
      Day        4        4     1997      0.0      6.1     20.4   363.88      0.0      0.0      0.0      0.0      0.0      0.1        9      5.2      5.2      100     0.000     0.000     0.000     0.000       46        0        0        0        0        6        0     0.152       99      0.0       -9       -9       -9       -9    0.000    0.000        4        4     1997  idealPro.PRO
      Day        5        4     1997      0.0      5.9     20.2   363.88      0.0      0.0      0.0      0.0      0.0      0.1        5      5.1      5.1      100     0.000     0.000     0.000     0.000       47        0        0        0        0        6        0     0.153       99      0.0       -9       -9       -9       -9    0.000    0.000        5        4     1997  idealPro.PRO
      Day        6        4     1997      0.0      6.4     20.0   363.88      0.0      0.0      0.0      0.0      0.0      0.1        5      5.5      5.5      100     0.000     0.000     0.000     0.000       48        0        0        0        0        6        0     0.154       99      0.0       -9       -9       -9       -9    0.000    0.000        6        4     1997  idealPro.PRO
      Day        7        4     1997      0.0      6.5     19.9   363.88     46.3     46.3      0.0      0.0      0.0      1.2      100      5.6      5.6      100     0.000     0.000     0.000     0.000       49        0        0        0        0        6        0     0.154       99      0.0       -9       -9       -9       -9    0.000    0.000        7        4     1997  idealPro.PRO
      Day        8        4     1997      0.0      6.5     20.2   363.88      0.0      0.0      0.0      0.0      0.0      1.2      100      5.6      5.6      100     0.000     0.000     0.000     0.000       50        0        0        0        0        6        0     0.155       99      0.0       -9       -9       -9       -9    0.000    0.000        8        4     1997  idealPro.PRO
      Day        9        4     1997      0.0      5.9     19.9   363.88      0.0      0.0      0.0      0.0      0.0      1.1      100      5.2      5.2      100     0.000     0.000     0.000     0.000       51        0        0        0        0        6        0     0.156       99      0.0       -9       -9       -9       -9    0.000    0.000        9        4     1997  idealPro.PRO
      Day       10        4     1997      0.0      5.9     20.2   363.88      0.0      0.0      0.0      0.0      0.0      1.1      100      5.2      5.2      100     0.000     0.000     0.000     0.000       52        0        0        0        0        6        0     0.156       99      0.0       -9       -9       -9       -9    0.000    0.000       10        4     1997  idealPro.PRO
      Day       11        4     1997      0.0      6.1     20.2   363.88      0.0      0.0      0.0      0.0      0.0      1.1      100      5.4      5.4      100     0.000     0.000     0.000     0.000       53        0        0        0        0        6        0     0.156       99      0.0       -9       -9       -9       -9    0.000    0.000       11        4     1997  idealPro.PRO
      Day       12        4     1997      0.0      5.9     21.0   363.88      0.0      0.0      0.0      0.0      0.0      1.0      100      5.2      5.2      100     0.000     0.000     0.000     0.000       54        0        0        0        0        6        0     0.157       99      0.0       -9       -9       -9       -9    0.000    0.000       12        4     1997  idealPro.PRO
      Day       13        4     1997      0.5      5.8     20.2   363.88      0.0      0.5      0.0      0.0      0.0      0.5       52      5.1      5.1      100     0.000     0.000     0.000     0.000       55        0        0        0        0        6        0     0.157      100      0.0       -9       -9       -9       -9    0.000    0.000       13        4     1997  idealPro.PRO
      Day       14        4     1997      0.0      5.7     19.8   363.88     43.3     43.3      0.0      0.0      0.0      1.0      100      5.1      5.1      100     0.000     0.000     0.000     0.000       56        0        0        0        0        6        0     0.158      100      0.0       -9       -9       -9       -9    0.000    0.000       14        4     1997  idealPro.PRO
      Day       15        4     1997      0.0      5.9     19.5   363.88      0.0      0.0      0.0      0.0      0.0      1.0      100      5.3      5.3      100     0.000     0.000     0.000     0.000       57        0        0        0        0        6        0     0.158      100      0.0       -9       -9       -9       -9    0.000    0.000       15        4     1997  idealPro.PRO
      Day       16        4     1997      0.0      6.3     19.6   363.88      0.0      0.0      0.0      0.0      0.0      1.0      100      5.6      5.6      100     0.000     0.000     0.000     0.000       58        0        0        0        0        6        0     0.158      100      1.5       -9       -9       -9       -9    0.000    0.000       16        4     1997  idealPro.PRO
      Day       17        4     1997      0.0      6.3     20.0   363.88      0.0      0.0      0.0      0.0      0.0      1.0      100      5.6      5.6      100     0.000     0.000     0.000     0.000       59        0        0        0        0        6        0     0.158      100      1.7       -9       -9       -9       -9    0.000    0.000       17        4     1997  idealPro.PRO
      Day       18        4     1997      0.0      6.2     20.3   363.88      0.0      0.0      0.0      0.0      0.0      1.0      100      5.6      5.6      100     0.000     0.000     0.000     0.000       60        0        0        0        0        6        0     0.158      100      2.0       -9       -9       -9       -9    0.000    0.000       18        4     1997  idealPro.PRO
      Day       19        4     1997      0.0      6.2     20.8   363.88      0.0      0.0      0.0      0.0      0.0      1.0      100      5.6      5.6      100     0.000     0.000     0.000     0.000       61        0        0        0        0        6        0     0.158      100      2.3       -9       -9       -9       -9    0.000    0.000       19        4     1997  idealPro.PRO
      Day       20        4     1997      0.2      5.8     21.0   363.88      0.0      0.2      0.0      0.0      0.0      0.2       24      5.1      5.1      100     0.000     0.000     0.000     0.000       62        0        0        0        0        6        0     0.158      100      2.6       -9       -9       -9       -9    0.000    0.000       20        4     1997  idealPro.PRO
      Day       21        4     1997      0.0      5.9     20.8   363.88     43.9     43.9      0.0      0.0      0.0      1.0      100      5.3      5.3      100     0.000     0.000     0.000     0.000       63        0        0        0        0        6        0     0.158      100      2.9       -9       -9       -9       -9    0.000    0.000       21        4     1997  idealPro.PRO
      Day       22        4     1997      0.0      6.1     20.4   363.88      0.0      0.0      0.0      0.0      0.0      1.0      100      5.4      5.4      100     0.000     0.000     0.000     0.000       64        0        0        0        0        6        0     0.158      100      3.4       -9       -9       -9       -9    0.000    0.000       22        4     1997  idealPro.PRO
      Day       23        4     1997      0.0      6.2     20.1   363.88      0.0      0.0      0.0      0.0      0.0      1.0      100      5.5      5.5      100     0.000     0.000     0.000     0.000       65        0        0        0        0        6        0     0.158      100      3.8       -9       -9       -9       -9    0.000    0.000       23        4     1997  idealPro.PRO
      Day       24        4     1997      0.0      6.1     19.9   363.88      0.0      0.0      0.0      0.0      0.0      1.0      100      5.4      5.4      100     0.000     0.000     0.000     0.000       66        0        0        0        0        6        0     0.157      100      4.4       -9       -9       -9       -9    0.000    0.000       24        4     1997  idealPro.PRO
      Day       25        4     1997      0.0      6.0     20.5   363.88      0.0      0.0      0.0      0.0      0.0      1.0      100      5.3      5.3      100     0.000     0.000     0.000     0.000       67        0        0        0        0        6        0     0.157      100      5.0       -9       -9       -9       -9    0.000    0.000       25        4     1997  idealPro.PRO
      Day       26        4     1997      0.0      6.1     20.2   363.88      0.0      0.0      0.0      0.0      0.0      1.0      100      5.4      5.4      100     0.000     0.000     0.000     0.000       68        0        0        0        0        6        0     0.157      100      5.6       -9       -9       -9       -9    0.000    0.000       26        4     1997  idealPro.PRO
      Day       27        4     1997      0.0      6.1     20.0   363.88      0.0      0.0      0.0      0.0      0.0      1.0      100      5.4      5.4      100     0.000     0.000     0.000     0.000       69        0        0        0        0        6        0     0.157      100      6.4       -9       -9       -9       -9    0.000    0.000       27        4     1997  idealPro.PRO
      Day       28        4     1997      0.0      6.2     20.2   363.88     45.0     45.0      0.0      0.0      0.0      1.0      100      5.4      5.4      100     0.000     0.000     0.000     0.000       70        0        0        0        0        6        0     0.157      100      7.2       -9       -9       -9       -9    0.000    0.000       28        4     1997  idealPro.PRO
      Day       29        4     1997      0.0      6.0     20.8   363.88      0.0      0.0      0.0      0.0      0.0      1.0      100      5.3      5.3      100     0.000     0.000     0.000     0.000       71        0        0        0        0        6        0     0.157      100      8.2       -9       -9       -9       -9    0.000    0.000       29        4     1997  idealPro.PRO
      Day       30        4     1997      0.0      6.2     21.0   363.88      0.0      0.0      0.0      0.0      0.0      1.0      100      5.5      5.5      100     0.000     0.000     0.000     0.000       72        0        0        0        0        6        0     0.157      100      9.2       -9       -9       -9       -9    0.000    0.000       30        4     1997  idealPro.PRO
      Day        1        5     1997      0.0      6.8     21.0   363.88      0.0      0.0      0.0      0.0      0.0      1.1      100      6.0      6.0      100     0.000     0.000     0.000     0.000       73        0        0        0        0        6        0     0.156      100     10.4       -9       -9       -9       -9    0.000    0.000        1        5     1997  idealPro.PRO
      Day        2        5     1997      0.0      7.1     21.0   363.88      0.0      0.0      0.0      0.0      0.0      1.1      100      6.3      6.3      100     0.000     0.000     0.000     0.000       74        0        0        0        0        6        0     0.156      100     11.6       -9       -9       -9       -9    0.000    0.000        2        5     1997  idealPro.PRO
      Day        3        5     1997      0.0      6.8     21.0   363.88      0.0      0.0      0.0      0.0      0.0      1.1      100      6.0      6.0      100     0.000     0.000     0.000     0.000       75        0        0        0        0        6        0     0.156      100     12.9       -9       -9       -9       -9    0.000    0.000        3        5     1997  idealPro.PRO
      Day        4        5     1997      0.0      6.6     21.0   363.88     41.4     41.4      0.0      0.0      0.0      1.1      100      5.8      5.8      100     0.000     0.000     0.000     0.000       76        0        0        0        0        6        0     0.156      100     14.3       -9       -9       -9       -9    0.000    0.000        4        5     1997  idealPro.PRO
      Day        5        5     1997      0.0      6.5     21.0   363.88      0.0      0.0      0.0      0.0      0.0      1.0      100      5.7      5.7      100     0.000     0.000     0.000     0.000       77        0        0        0        0        6        0     0.156      100     15.6       -9       -9       -9       -9    0.000    0.000        5        5     1997  idealPro.PRO
      Day        6        5     1997      0.0      6.6     21.0   363.88      0.0      0.0      0.0      0.0      0.0      1.1      100      5.8      5.8      100     0.000     0.000     0.000     0.000       78        0        0        0        0        6        0     0.156      100     16.9       -9       -9       -9       -9    0.000    0.000        6        5     1997  idealPro.PRO
      Day        7        5     1997      0.1      6.4     21.0   363.88      0.0      0.1      0.0      0.0      0.0      0.4       37      5.6      5.6      100     0.000     0.000     0.000     0.000       79        0        0        0        0        6        0     0.156      100     18.2       -9       -9       -9       -9    0.000    0.000        7        5     1997  idealPro.PRO
      Day        8        5     1997      2.2      5.2     20.4   363.88      0.0      2.2      0.0      0.0      0.0      0.8      100      4.6      4.6      100     0.000     0.000     0.000     0.000       80        0        0        0        0        6        0     0.155      100     19.5       -9       -9       -9       -9    0.000    0.000        8        5     1997  idealPro.PRO
      Day        9        5     1997      2.8      5.1     20.4   363.88      0.0      2.8      0.0      0.0      0.0      0.8      100      4.5      4.5      100     0.000     0.000     0.000     0.000       81        0        0        0        0        6        0     0.155      100     20.8       -9       -9       -9       -9    0.000    0.000        9        5     1997  idealPro.PRO
      Day       10        5     1997      7.0      5.0     20.8   363.88      0.0      7.0      0.0      0.0      0.0      0.8      100      4.3      4.3      100     0.000     0.000     0.000     0.000       82        0        0        0        0        6        0     0.155      100     22.2       -9       -9       -9       -9    0.000    0.000       10        5     1997  idealPro.PRO
      Day       11        5     1997      0.6      5.1     19.8   363.88      0.0      0.6      0.0      0.0      0.0      0.6       76      4.5      4.5      100     0.000     0.000     0.000     0.000       83        0        0        0        0        6        0     0.155      100     23.5       -9       -9       -9       -9    0.000    0.000       11        5     1997  idealPro.PRO
      Day       12        5     1997      3.2      5.0     21.0   363.88      0.0      3.2      0.0      0.0      0.0      0.8      100      4.3      4.3      100     0.000     0.000     0.000     0.000       84        0        0        0        0        6        0     0.155      100     24.8       -9       -9       -9       -9    0.000    0.000       12        5     1997  idealPro.PRO
      Day       13        5     1997      8.4      4.9     20.1   363.88      0.0      8.4      0.0      0.0      0.0      0.8      100      4.3      4.3      100     0.000     0.000     0.000     0.000       85        0        0        0        0        6        0     0.155      100     26.1       -9       -9       -9       -9    0.000    0.000       13        5     1997  idealPro.PRO
      Day       14        5     1997      0.9      4.8     20.8   363.88      0.0      0.9      0.0      0.0      0.0      0.8      100      4.1      4.1      100     0.000     0.000     0.000     0.000       86        0        0        0        0        6        0     0.154      100     27.4       -9       -9       -9       -9    0.000    0.000       14        5     1997  idealPro.PRO
      Day       15        5     1997      2.9      4.8     20.6   363.88      0.0      2.9      0.0      0.0      0.0      0.8      100      4.2      4.2      100     0.000     0.000     0.000     0.000       87        0        0        0        0        6        0     0.154      100     28.7       -9       -9       -9       -9    0.000    0.000       15        5     1997  idealPro.PRO
      Day       16        5     1997     19.4      2.8     19.9   363.88      0.0     19.4      0.0      0.0      0.0      0.5      100      2.4      2.4      100     0.000     0.000     0.000     0.000       88        0        0        0        0        6        0     0.154      100     30.1       -9       -9       -9       -9    0.000    0.000       16        5     1997  idealPro.PRO
      Day       17        5     1997      1.6      3.4     20.2   363.88      0.0      1.6      0.0      0.0      0.0      0.5      100      2.9      2.9      100     0.000     0.000     0.000     0.000       89        0        0        0        0        6        0     0.154      100     31.4       -9       -9       -9       -9    0.000    0.000       17        5     1997  idealPro.PRO
      Day       18        5     1997      6.6      3.3     20.0   363.88      0.0      6.6      0.0      0.0      0.0      0.5      100      2.9      2.9      100     0.000     0.000     0.000     0.000       90        0        0        0        0        6        0     0.154      100     32.7       -9       -9       -9       -9    0.000    0.000       18        5     1997  idealPro.PRO
      Day       19        5     1997      9.5      4.5     20.0   363.88      0.0      9.5      0.0      0.0      0.0      0.7      100      3.9      3.9      100     0.000     0.000     0.000     0.000       91        0        0        0        0        6        0     0.153      100     34.0       -9       -9       -9       -9    0.000    0.000       19        5     1997  idealPro.PRO
      Day       20        5     1997     13.9      2.8     20.3   363.88      0.0     13.5      0.4      0.0      0.0      0.4      100      2.4      2.4      100     0.000     0.000     0.000     0.000       92        0        0        0        0        6        0     0.153      100     35.3       -9       -9       -9       -9    0.000    0.000       20        5     1997  idealPro.PRO
      Day       21        5     1997     24.0      2.9     20.3   363.88      0.0     21.3      2.7      0.0      0.0      0.5      100      2.5      2.5      100     0.000     0.000     0.000     0.000       93        0        0        0        0        6        0     0.153      100     36.7       -9       -9       -9       -9    0.000    0.000       21        5     1997  idealPro.PRO
      Day       22        5     1997     21.3      2.5     19.8   363.88      0.0     19.3      2.0     16.3      0.0      0.4      100      2.1      2.1      100     0.000     0.000     0.000     0.000       94        0        0        0        0        6        0     0.153      100     38.0       -9       -9       -9       -9    0.000    0.000       22        5     1997  idealPro.PRO
      Day       23        5     1997     24.7      4.0     20.2   363.88      0.0     21.8      2.9     16.7      0.0      0.6      100      3.5      3.5      100     0.000     0.000     0.000     0.000       95        0        0        0        0        6        0     0.153      100     39.3       -9       -9       -9       -9    0.000    0.000       23        5     1997  idealPro.PRO
      Day       24        5     1997      0.0      4.8     20.3   363.88      0.0      0.0      0.0     17.8      0.0      0.8      100      4.1      4.1      100     0.000     0.000     0.000     0.000       96        0        0        0        0        6        0     0.153      100     40.6       -9       -9       -9       -9    0.000    0.000       24        5     1997  idealPro.PRO
      Day       25        5     1997     16.6      4.0     20.8   363.88      0.0     16.4      0.2      2.5      0.0      0.6      100      3.4      3.4      100     0.000     0.000     0.000     0.000       97        0        0        0        0        6        0     0.152      100     41.9       -9       -9       -9       -9    0.000    0.000       25        5     1997  idealPro.PRO
      Day       26        5     1997      0.6      6.0     21.0   363.88      0.0      0.6      0.0      5.9      0.0      1.0      100      5.1      5.1      100     0.000     0.000     0.000     0.000       98        0        0        0        0        6        0     0.152      100     43.2       -9       -9       -9       -9    0.000    0.000       26        5     1997  idealPro.PRO
      Day       27        5     1997      0.1      8.2     21.0   363.88      0.0      0.1      0.0      1.6      0.0      1.2       93      7.0      7.0      100     0.000     0.000     0.000     0.000       99        0        0        0        0        6        0     0.152      100     44.6       -9       -9       -9       -9    0.000    0.000       27        5     1997  idealPro.PRO
      Day       28        5     1997      0.0      7.7     21.0   363.88      0.0      0.0      0.0      0.2      0.0      0.3       23      6.6      6.6      100     0.000     0.000     0.000     0.000      100        0        0        0        0        6        0     0.152      100     45.9       -9       -9       -9       -9    0.000    0.000       28        5     1997  idealPro.PRO
      Day       29        5     1997      0.0      7.6     21.0   363.88      0.0      0.0      0.0      0.0      0.0      0.1       11      6.5      6.5      100     0.000     0.000     0.000     0.000      101        0        0        0        0        6        0     0.152      100     47.2       -9       -9       -9       -9    0.000    0.000       29        5     1997  idealPro.PRO
      Day       30        5     1997      0.0      6.9     21.0   363.88      0.0      0.0      0.0      0.0      0.0      0.1        6      5.9      5.9      100     0.000     0.000     0.000     0.000      102        0        0        0        0        6        0     0.152      100     48.5       -9       -9       -9       -9    0.000    0.000       30        5     1997  idealPro.PRO
      Day       31        5     1997     21.9      7.0     21.0   363.88      0.0     21.9      0.0      0.0      0.0      1.1      100      5.9      5.9      100     0.000     0.000     0.000     0.000      103        0        0        0        0        6        0     0.151      100     49.8       -9       -9       -9       -9    0.000    0.000       31        5     1997  idealPro.PRO
      Day        1        6     1997      1.0      6.4     20.8   363.88      0.0      1.0      0.0      0.0      0.0      1.0      100      5.5      5.5      100     0.000     0.000     0.000     0.000      104        0        0        0        0        6        0     0.151      100     51.1       -9       -9       -9       -9    0.000    0.000        1        6     1997  idealPro.PRO
      Day        2        6     1997     22.0      5.0     20.5   363.88      0.0     21.8      0.2      0.0      0.0      0.8      100      4.2      4.2      100     0.000     0.000     0.000     0.000      105        0        0        0        0        6        0     0.151      100     52.5       -9       -9       -9       -9    0.000    0.000        2        6     1997  idealPro.PRO
      Day        3        6     1997      9.4      2.6     20.6   363.88      0.0      9.3      0.1      0.0      0.0      0.4      100      2.2      2.2      100     0.000     0.000     0.000     0.000      106        0        0        0        0        6        0     0.151      100     53.8       -9       -9       -9       -9    0.000    0.000        3        6     1997  idealPro.PRO
      Day        4        6     1997      9.6      4.3     20.4   363.88      0.0      9.4      0.2      0.0      0.0      0.7      100      3.6      3.6      100     0.000     0.000     0.000     0.000      107        0        0        0        0        6        0     0.151      100     55.1       -9       -9       -9       -9    0.000    0.000        4        6     1997  idealPro.PRO
      Day        5        6     1997     35.5      3.1     20.1   363.88      0.0     29.0      6.5      3.4      0.0      0.5      100      2.7      2.7      100     0.000     0.000     0.000     0.000      108        0        0        0        0        6        0     0.151      100     56.4       -9       -9       -9       -9    0.000    0.000        5        6     1997  idealPro.PRO
      Day        6        6     1997     28.1      2.9     20.0   363.88      0.0     24.2      3.9     23.7      0.0      0.5      100      2.5      2.5      100     0.000     0.000     0.000     0.000      109        0        0        0        0        6        0     0.150      100     57.7       -9       -9       -9       -9    0.000    0.000        6        6     1997  idealPro.PRO
      Day        7        6     1997      5.1      2.5     20.0   363.88      0.0      5.1      0.0     21.4      0.0      0.4      100      2.1      2.1      100     0.000     0.000     0.000     0.000      110        0        0        0        0        6        0     0.150      100     59.0       -9       -9       -9       -9    0.000    0.000        7        6     1997  idealPro.PRO
      Day        8        6     1997      2.1      4.8     20.4   363.88      0.0      2.1      0.0      4.9      0.0      0.8      100      4.0      4.0      100     0.000     0.000     0.000     0.000      111        0        0        0        0        6        0     0.150      100     60.4       -9       -9       -9       -9    0.000    0.000        8        6     1997  idealPro.PRO
      Day        9        6     1997      0.5      5.5     20.5   363.88      0.0      0.5      0.0      0.8      0.0      0.9       98      4.6      4.6      100     0.000     0.000     0.000     0.000      112        0        0        0        0        6        0     0.150      100     61.7       -9       -9       -9       -9    0.000    0.000        9        6     1997  idealPro.PRO
      Day       10        6     1997      7.0      5.5     20.7   363.88      0.0      7.0      0.0      0.1      0.0      0.9      100      4.7      4.7      100     0.000     0.000     0.000     0.000      113        0        0        0        0        6        0     0.150      100     63.0       -9       -9       -9       -9    0.000    0.000       10        6     1997  idealPro.PRO
      Day       11        6     1997     10.4      5.6     20.8   363.88      0.0     10.4      0.0      0.0      0.0      0.9      100      4.8      4.8      100     0.000     0.000     0.000     0.000      114        0        0        0        0        6        0     0.150      100     63.0       -9       -9       -9       -9    0.000    0.000       11        6     1997  idealPro.PRO
      Day       12        6     1997      0.6      4.4     20.4   363.88      0.0      0.6      0.0      0.0      0.0      0.7      100      3.7      3.7      100     0.000     0.000     0.000     0.000      115        0        0        0        0        6        0     0.149      100     63.0       -9       -9       -9       -9    0.000    0.000       12        6     1997  idealPro.PRO
      Day       13        6     1997      0.1      5.6     20.7   363.88      0.0      0.1      0.0      0.0      0.0      0.9       95      4.7      4.7      100     0.000     0.000     0.000     0.000      116        0        0        0        0        6        0     0.149      100     63.0       -9       -9       -9       -9    0.000    0.000       13        6     1997  idealPro.PRO
      Day       14        6     1997      0.1      5.2     20.8   363.88      0.0      0.1      0.0      0.0      0.0      0.4       50      4.4      4.4      100     0.000     0.000     0.000     0.000      117        0        0        0        0        6        0     0.149      100     63.0       -9       -9       -9       -9    0.000    0.000       14        6     1997  idealPro.PRO
      Day       15        6     1997      2.3      4.7     20.6   363.88      0.0      2.3      0.0      0.0      0.0      0.8      100      3.9      3.9      100     0.000     0.000     0.000     0.000      118        0        0        0        0        6        0     0.149      100     63.0       -9       -9       -9       -9    0.000    0.000       15        6     1997  idealPro.PRO
      Day       16        6     1997      0.2      5.7     20.5   363.88      0.0      0.2      0.0      0.0      0.0      0.3       34      4.8      4.8      100     0.000     0.000     0.000     0.000      119        0        0        0        0        6        0     0.149      100     63.0       -9       -9       -9       -9    0.000    0.000       16        6     1997  idealPro.PRO
      Day       17        6     1997      0.3      6.2     20.8   363.88      0.0      0.3      0.0      0.0      0.0      0.4       36      5.2      5.2      100     0.000     0.000     0.000     0.000      120        0        0        0        0        6        0     0.149      100     63.0       -9       -9       -9       -9    0.000    0.000       17        6     1997  idealPro.PRO
      Day       18        6     1997      0.7      6.2     20.6   363.88      0.0      0.7      0.0      0.0      0.0      0.7       72      5.2      5.2      100     0.000     0.000     0.000     0.000      121        0        0        0        0        6        0     0.148      100     63.0       -9       -9       -9       -9    0.000    0.000       18        6     1997  idealPro.PRO
      Day       19        6     1997     16.6      5.2     19.8   363.88      0.0     16.6      0.0      0.0      0.0      0.8      100      4.3      4.3      100     0.000     0.000     0.000     0.000      122        0        0        0        0        6        0     0.148      100     63.0       -9       -9       -9       -9    0.000    0.000       19        6     1997  idealPro.PRO
      Day       20        6     1997      2.1      5.5     19.8   363.88      0.0      2.1      0.0      0.0      0.0      0.9      100      4.6      4.6      100     0.000     0.000     0.000     0.000      123        0        0        0        0        6        0     0.148      100     63.0       -9       -9       -9       -9    0.000    0.000       20        6     1997  idealPro.PRO
      Day       21        6     1997      5.6      6.1     20.7   363.88      0.0      5.6      0.0      0.0      0.0      1.0      100      5.1      5.1      100     0.000     0.000     0.000     0.000      124        0        0        0        0        6        0     0.148      100     63.0       -9       -9       -9       -9    0.000    0.000       21        6     1997  idealPro.PRO
      Day       22        6     1997      0.2      6.4     21.0   363.88      0.0      0.2      0.0      0.0      0.0      0.5       47      5.3      5.3      100     0.000     0.000     0.000     0.000      125        0        0        0        0        6        0     0.148      100     63.0       -9       -9       -9       -9    0.000    0.000       22        6     1997  idealPro.PRO
      Day       23        6     1997      0.9      6.2     20.8   363.88      0.0      0.9      0.0      0.0      0.0      0.9       91      5.2      5.2      100     0.000     0.000     0.000     0.000      126        0        0        0        0        6        0     0.148      100     63.0       -9       -9       -9       -9    0.000    0.000       23        6     1997  idealPro.PRO
      Day       24        6     1997      0.2      6.0     21.0   363.88     42.3     42.5      0.0      0.0      0.0      1.0      100      5.0      5.0      100     0.000     0.000     0.000     0.000      127        0        0        0        0        6        0     0.147      100     63.0       -9       -9       -9       -9    0.000    0.000       24        6     1997  idealPro.PRO
      Day       25        6     1997      0.6      5.8     20.8   363.88      0.0      0.6      0.0      0.0      0.0      0.9       98      4.8      4.8      100     0.000     0.000     0.000     0.000      128        0        0        0        0        6        0     0.147      100     63.0       -9       -9       -9       -9    0.000    0.000       25        6     1997  idealPro.PRO
      Day       26        6     1997      0.5      5.5     21.0   363.88      0.0      0.5      0.0      0.1      0.0      0.9       97      4.6      4.6      100     0.000     0.000     0.000     0.000      129        0        0        0        0        6        0     0.147      100     63.0       -9       -9       -9       -9    0.000    0.000       26        6     1997  idealPro.PRO
      Day       27        6     1997      1.0      5.4     20.5   363.88      0.0      1.0      0.0      0.1      0.0      0.9      100      4.5      4.5      100     0.000     0.000     0.000     0.000      130        0        0        0        0        6        0     0.147      100     63.0       -9       -9       -9       -9    0.000    0.000       27        6     1997  idealPro.PRO
      Day       28        6     1997      0.0      6.5     21.0   363.88      0.0      0.0      0.0      0.0      0.0      0.3       31      5.3      5.3      100     0.000     0.000     0.000     0.000      131        0        0        0        0        6        0     0.147      100     63.0       -9       -9       -9       -9    0.000    0.000       28        6     1997  idealPro.PRO
      Day       29        6     1997      2.1      6.2     20.8   363.88      0.0      2.1      0.0      0.0      0.0      1.0      100      5.2      5.2      100     0.000     0.000     0.000     0.000      132        0        0        0        0        6        0     0.147      100     63.0       -9       -9       -9       -9    0.000    0.000       29        6     1997  idealPro.PRO
      Day       30        6     1997      0.0      4.1     21.0   363.88      0.0      0.0      0.0      0.0      0.0      0.7      100      3.4      3.4      100     0.000     0.000     0.000     0.000      133        0        0        0        0        6        0     0.146      100     63.0       -9       -9       -9       -9    0.000    0.000       30        6     1997  idealPro.PRO
      Day        1        7     1997      2.0      4.2     20.2   363.88      0.0      2.0      0.0      0.0      0.0      0.7      100      3.5      3.5      100     0.000     0.000     0.000     0.000      134        0        0        0        0        6        0     0.146      100     63.0       -9       -9       -9       -9    0.000    0.000        1        7     1997  idealPro.PRO
      Day        2        7     1997      0.0      5.2     20.8   363.88      0.0      0.0      0.0      0.0      0.0      0.8      100      4.2      4.2      100     0.000     0.000     0.000     0.000      135        0        0        0        0        6        0     0.146      100     63.0       -9       -9       -9       -9    0.000    0.000        2        7     1997  idealPro.PRO
      Day        3        7     1997      4.2      6.3     20.6   363.88      0.0      4.2      0.0      0.0      0.0      1.0      100      5.2      5.2      100     0.000     0.000     0.000     0.000      136        0        0        0        0        6        0     0.146      100     63.0       -9       -9       -9       -9    0.000    0.000        3        7     1997  idealPro.PRO
      Day        4        7     1997      2.6      4.4     20.2   363.88     40.8     43.4      0.0      0.0      0.0      0.7      100      3.6      3.6      100     0.000     0.000     0.000     0.000      137        0        0        0        0        6        0     0.146      100     63.0       -9       -9       -9       -9    0.000    0.000        4        7     1997  idealPro.PRO
      Day        5        7     1997      0.0      5.8     20.5   363.88      0.0      0.0      0.0      0.8      0.0      0.9      100      4.7      4.7      100     0.000     0.000     0.000     0.000      138        0        0        0        0        6        0     0.145      100     63.0       -9       -9       -9       -9    0.000    0.000        5        7     1997  idealPro.PRO
      Day        6        7     1997      2.2      3.2     20.0   363.88      0.0      2.2      0.0      0.5      0.0      0.5      100      2.6      2.6      100     0.000     0.000     0.000     0.000      139        0        0        0        0        6        0     0.145      100     63.0       -9       -9       -9       -9    0.000    0.000        6        7     1997  idealPro.PRO
      Day        7        7     1997      1.2      4.9     20.3   363.88      0.0      1.2      0.0      0.1      0.0      0.8      100      4.0      4.0      100     0.000     0.000     0.000     0.000      140        0        0        0        0        6        0     0.145      100     63.0       -9       -9       -9       -9    0.000    0.000        7        7     1997  idealPro.PRO
      Day        8        7     1997     11.6      3.5     20.2   363.88      0.0     11.6      0.0      0.0      0.0      0.6      100      2.9      2.9      100     0.000     0.000     0.000     0.000      141        0        0        0        0        6        0     0.145      100     63.0       -9       -9       -9       -9    0.000    0.000        8        7     1997  idealPro.PRO
      Day        9        7     1997      5.2      4.1     19.8   363.88      0.0      5.2      0.0      0.0      0.0      0.7      100      3.4      3.4      100     0.000     0.000     0.000     0.000      142        0        0        0        0        6        0     0.145      100     63.0       -9       -9       -9       -9    0.000    0.000        9        7     1997  idealPro.PRO
      Day       10        7     1997      0.2      5.7     20.4   363.88      0.0      0.2      0.0      0.0      0.0      0.9       96      4.7      4.7      100     0.000     0.000     0.000     0.000      143        0        0        0        0        6        0     0.145      100     63.0       -9       -9       -9       -9    0.000    0.000       10        7     1997  idealPro.PRO
      Day       11        7     1997      1.0      4.2     20.0   363.88      0.0      1.0      0.0      0.0      0.0      0.7      100      3.4      3.4      100     0.000     0.000     0.000     0.000      144        0        0        0        0        6        0     0.144      100     63.0       -9       -9       -9       -9    0.000    0.000       11        7     1997  idealPro.PRO
      Day       12        7     1997      2.6      5.5     20.6   363.88      0.0      2.6      0.0      0.0      0.0      0.9      100      4.5      4.5      100     0.000     0.000     0.000     0.000      145        0        0        0        0        6        0     0.144      100     63.0       -9       -9       -9       -9    0.000    0.000       12        7     1997  idealPro.PRO
      Day       13        7     1997      8.0      2.4     19.8   363.88      0.0      8.0      0.0      0.0      0.0      0.4      100      2.0      2.0      100     0.000     0.000     0.000     0.000      146        0        0        0        0        6        0     0.144      100     63.0       -9       -9       -9       -9    0.000    0.000       13        7     1997  idealPro.PRO
      Day       14        7     1997      8.9      2.1     19.6   363.88      0.0      8.9      0.0      0.0      0.0      0.3      100      1.7      1.7      100     0.000     0.000     0.000     0.000      147        0        0        0        0        6        0     0.144      100     63.0       -9       -9       -9       -9    0.000    0.000       14        7     1997  idealPro.PRO
      Day       15        7     1997      8.2      2.5     19.6   363.88      0.0      8.1      0.1      0.5      0.0      0.4      100      2.1      2.1      100     0.000     0.000     0.000     0.000      148        0        0        0        0        6        0     0.144      100     63.0       -9       -9       -9       -9    0.000    0.000       15        7     1997  idealPro.PRO
      Day       16        7     1997      2.8      3.4     19.8   363.88      0.0      2.8      0.0      4.3      0.0      0.5      100      2.7      2.7      100     0.000     0.000     0.000     0.000      149        0        0        0        0        6        0     0.144      100     63.0       -9       -9       -9       -9    0.000    0.000       16        7     1997  idealPro.PRO
      Day       17        7     1997      0.1      3.5     19.9   363.88      0.0      0.1      0.0      1.2      0.0      0.5       98      2.8      2.8      100     0.000     0.000     0.000     0.000      150        0        0        0        0        6        0     0.143      100     63.0       -9       -9       -9       -9    0.000    0.000       17        7     1997  idealPro.PRO
      Day       18        7     1997      1.1      4.0     20.5   363.88      0.0      1.1      0.0      0.2      0.0      0.6      100      3.3      3.3      100     0.000     0.000     0.000     0.000      151        0        0        0        0        6        0     0.143      100     63.0       -9       -9       -9       -9    0.000    0.000       18        7     1997  idealPro.PRO
      Day       19        7     1997      0.5      3.2     20.0   363.88      0.0      0.5      0.0      0.0      0.0      0.5      100      2.6      2.6      100     0.000     0.000     0.000     0.000      152        0        0        0        0        6        0     0.143      100     63.0       -9       -9       -9       -9    0.000    0.000       19        7     1997  idealPro.PRO
      Day       20        7     1997      0.1      4.1     19.9   363.88      0.0      0.1      0.0      0.0      0.0      0.5       69      3.3      3.3      100     0.000     0.000     0.000     0.000      153        0        0        0        0        6        0     0.143      100     63.0       -9       -9       -9       -9    0.000    0.000       20        7     1997  idealPro.PRO
      Day       21        7     1997      2.6      5.2     20.4   363.88      0.0      2.6      0.0      0.0      0.0      0.8      100      4.2      4.2      100     0.000     0.000     0.000     0.000      154        0        0        0        0        6        0     0.143      100     63.0       -9       -9       -9       -9    0.000    0.000       21        7     1997  idealPro.PRO
      Day       22        7     1997      0.0      5.3     20.6   363.88      0.0      0.0      0.0      0.0      0.0      0.9      100      4.3      4.3      100     0.000     0.000     0.000     0.000      155        0        0        0        0        6        0     0.142      100     63.0       -9       -9       -9       -9    0.000    0.000       22        7     1997  idealPro.PRO
      Day       23        7     1997      0.1      7.1     20.4   363.88      0.0      0.1      0.0      0.0      0.0      0.2       17      5.6      5.6      100     0.000     0.000     0.000     0.000      156        0        0        0        0        6        0     0.140      100     63.0       -9       -9       -9       -9    0.000    0.000       23        7     1997  idealPro.PRO
      Day       24        7     1997      0.0      7.2     21.0   363.88      0.0      0.0      0.0      0.0      0.0      0.1        5      5.7      5.7      100     0.000     0.000     0.000     0.000      157        0        0        0        0        6        0     0.139      100     63.0       -9       -9       -9       -9    0.000    0.000       24        7     1997  idealPro.PRO
      Day       25        7     1997      1.1      7.2     20.8   363.88      0.0      1.1      0.0      0.0      0.0      1.1       90      5.6      5.6      100     0.000     0.000     0.000     0.000      158        0        0        0        0        6        0     0.138      100     63.0       -9       -9       -9       -9    0.000    0.000       25        7     1997  idealPro.PRO
      Day       26        7     1997      4.6      6.5     20.8   363.88     39.5     44.1      0.0      0.0      0.0      1.1      100      5.0      5.0      100     0.000     0.000     0.000     0.000      159        0        0        0        0        6        0     0.136      100     63.0       -9       -9       -9       -9    0.000    0.000       26        7     1997  idealPro.PRO
      Day       27        7     1997      0.3      7.1     21.0   363.88      0.0      0.3      0.0      0.0      0.0      3.4       79      0.0      0.0       -9     0.000     0.000     0.000     0.000      159        0        0        0        0        6        0     0.000       -9     63.0       -9       -9       -9       -9    0.000    0.000       27        7     1997  idealPro.PRO
   Tot(1)        7        2     1997    434.7    910.6   3416.6   363.88    488.7    904.2     19.2    123.8      0.0    178.3       53    604.5    604.5      100     0.000     0.000     0.000     0.000      159        0        0        0        0        6        0    19.953       98     63.0   12.570  251.405     1.61    0.000    0.000       27        7     1997  idealPro.PRO
