AquaCrop 7.2 (August 2024) - Output created on (date) : 27-12-2024   at (time) : 21:00:28

   Day Month  Year   DAP Stage   WC(1.20)   Rain     Irri   Surf   Infilt   RO    Drain       CR    Zgwt       Ex       E     E/Ex     Trx       Tr  Tr/Trx    ETx      ET  ET/ETx      GD       Z     StExp  StSto  StSen StSalt StWeed   CC      CCw     StTr  Kc(Tr)     Trx       Tr      TrW  Tr/Trx   WP    Biomass     HI    Y(dry)  Y(fresh)  Brelative    WPet      Bin     Bout  WC(1.20) Wr(0.46)     Z       Wr    Wr(SAT)    Wr(FC)   Wr(exp)   Wr(sto)   Wr(sen)   Wr(PWP)    SaltIn    SaltOut   SaltUp   Salt(1.20)  SaltZ     Z       ECe    ECsw   StSalt  Zgwt    ECgw       WC01       WC 2       WC 3       WC 4       WC 5       WC 6       WC 7       WC 8       WC 9       WC10       WC11       WC12      ECe01      ECe 2      ECe 3      ECe 4      ECe 5      ECe 6      ECe 7      ECe 8      ECe 9      ECe10      ECe11      ECe12     Rain       ETo      Tmin      Tavg      Tmax      CO2
                                      mm      mm       mm     mm     mm     mm       mm       mm      m        mm       mm     %        mm       mm    %        mm      mm       %  degC-day     m       %      %      %      %      %      %       %       %       -        mm       mm       mm    %     g/m2    ton/ha      %    ton/ha   ton/ha       %       kg/m3   ton/ha   ton/ha      mm       mm       m       mm        mm        mm        mm        mm        mm         mm    ton/ha    ton/ha    ton/ha    ton/ha    ton/ha     m      dS/m    dS/m      %     m      dS/m       0.05       0.15       0.25       0.35       0.45       0.55       0.65       0.75       0.85       0.95       1.05       1.15       0.05       0.15       0.25       0.35       0.45       0.55       0.65       0.75       0.85       0.95       1.05       1.15       mm        mm     degC      degC      degC       ppm
     9     1  1997     1     1     261.6     0.7      0.0    0.0    0.7    0.0      0.0      0.0   -9.90      3.7      3.1     85      0.0      0.0   100      3.7     3.1      85     18.0    0.30     -9     -9     -9      0     -9     0.0     0.0      0    -9.00      0.0      0.0      0.0   100     0.0     0.000    -9.9    0.000    0.000      -9        0.00    0.000    0.000     261.6     98.2    0.30    63.6     123.0      66.0      60.6      46.2      40.8      30.0    0.000     0.000     0.000     0.000     0.000    0.30     0.00    0.00      0   -9.90   -9.00       19.6       22.0       22.0       22.0       22.0       22.0       22.0       22.0       22.0       22.0       22.0       22.0        0.0        0.0        0.0        0.0        0.0        0.0        0.0        0.0        0.0        0.0        0.0        0.0      0.7       3.3      22.0      26.3      30.6    363.88
    10     1  1997     2     1     258.6     0.8      0.0    0.0    0.8    0.0      0.0      0.0   -9.90      4.8      3.8     80      0.0      0.0   100      4.8     3.8      80     18.4    0.30     -9     -9     -9      0     -9     0.0     0.0      0    -9.00      0.0      0.0      0.0   100     0.0     0.000    -9.9    0.000    0.000      -9        0.00    0.000    0.000     258.6     95.2    0.30    60.6     123.0      66.0      60.6      47.3      40.8      30.0    0.000     0.000     0.000     0.000     0.000    0.30     0.00    0.00      0   -9.90   -9.00       16.6       22.0       22.0       22.0       22.0       22.0       22.0       22.0       22.0       22.0       22.0       22.0        0.0        0.0        0.0        0.0        0.0        0.0        0.0        0.0        0.0        0.0        0.0        0.0      0.8       4.3      22.7      27.8      32.9    363.88
    11     1  1997     3     1     256.1     0.0      0.0    0.0    0.0    0.0      0.0      0.0   -9.90      5.1      2.4     47      0.0      0.0   100      5.1     2.4      47     18.4    0.30     -9     -9     -9      0     -9     0.0     0.0      0    -9.00      0.0      0.0      0.0   100     0.0     0.000    -9.9    0.000    0.000      -9        0.00    0.000    0.000     256.1     92.7    0.30    58.1     123.0      66.0      60.6      47.7      40.8      30.0    0.000     0.000     0.000     0.000     0.000    0.30     0.00    0.00      0   -9.90   -9.00       14.1       22.0       22.0       22.0       22.0       22.0       22.0       22.0       22.0       22.0       22.0       22.0        0.0        0.0        0.0        0.0        0.0        0.0        0.0        0.0        0.0        0.0        0.0        0.0      0.0       4.7      22.9      28.6      34.3    363.88
    12     1  1997     4     1     254.5     0.0      0.0    0.0    0.0    0.0      0.0      0.0   -9.90      5.1      1.7     32      0.0      0.0   100      5.1     1.7      32     17.4    0.30     -9     -9     -9      0     -9     0.0     0.0      0    -9.00      0.0      0.0      0.0   100     0.0     0.000    -9.9    0.000    0.000      -9        0.00    0.000    0.000     254.5     91.1    0.30    56.5     123.0      66.0      60.6      47.7      40.8      30.0    0.000     0.000     0.000     0.000     0.000    0.30     0.00    0.00      0   -9.90   -9.00       12.5       22.0       22.0       22.0       22.0       22.0       22.0       22.0       22.0       22.0       22.0       22.0        0.0        0.0        0.0        0.0        0.0        0.0        0.0        0.0        0.0        0.0        0.0        0.0      0.0       4.7      20.8      26.9      33.0    363.88
    13     1  1997     5     1     263.2     0.0     14.7    0.0   14.7    0.0      0.0      0.0   -9.90      6.0      6.0    100      0.0      0.0   100      6.0     6.0     100     17.6    0.30     -9     -9     -9      0     -9     0.0     0.0      0    -9.00      0.0      0.0      0.0   100     0.0     0.000    -9.9    0.000    0.000      -9        0.00    0.000    0.000     263.2     99.7    0.30    65.2     123.0      66.0      60.6      48.5      40.8      30.0    0.000     0.000     0.000     0.000     0.000    0.30     0.00    0.00      0   -9.90   -9.00       21.2       22.0       22.0       22.0       22.0       22.0       22.0       22.0       22.0       22.0       22.0       22.0        0.0        0.0        0.0        0.0        0.0        0.0        0.0        0.0        0.0        0.0        0.0        0.0      0.0       5.4      21.3      27.0      32.8    363.88
    14     1  1997     6     1     258.5     0.0      0.0    0.0    0.0    0.0      0.0      0.0   -9.90      6.1      4.6     76      0.0      0.0   100      6.1     4.6      76     17.1    0.30     -9     -9     -9      0     -9     0.0     0.0      0    -9.00      0.0      0.0      0.0   100     0.0     0.000    -9.9    0.000    0.000      -9        0.00    0.000    0.000     258.5     95.1    0.30    60.5     123.0      66.0      60.6      48.6      40.8      30.0    0.000     0.000     0.000     0.000     0.000    0.30     0.00    0.00      0   -9.90   -9.00       16.5       22.0       22.0       22.0       22.0       22.0       22.0       22.0       22.0       22.0       22.0       22.0        0.0        0.0        0.0        0.0        0.0        0.0        0.0        0.0        0.0        0.0        0.0        0.0      0.0       5.6      20.1      25.1      30.2    363.88
    15     1  1997     7     1     256.4     0.0      0.0    0.0    0.0    0.0      0.0      0.0   -9.90      4.9      2.1     43      0.0      0.0   100      4.9     2.1      43     15.9    0.30     -9     -9     -9      0     -9     0.0     0.0      0    -9.00      0.0      0.0      0.0   100     0.0     0.000    -9.9    0.000    0.000      -9        0.00    0.000    0.000     256.4     93.0    0.30    58.4     123.0      66.0      60.6      47.4      40.8      30.0    0.000     0.000     0.000     0.000     0.000    0.30     0.00    0.00      0   -9.90   -9.00       14.4       22.0       22.0       22.0       22.0       22.0       22.0       22.0       22.0       22.0       22.0       22.0        0.0        0.0        0.0        0.0        0.0        0.0        0.0        0.0        0.0        0.0        0.0        0.0      0.0       4.4      17.8      23.1      28.5    363.88
    16     1  1997     8     1     255.0     0.0      0.0    0.0    0.0    0.0      0.0      0.0   -9.90      4.4      1.4     32      0.0      0.0   100      4.4     1.4      32     15.2    0.30     -9     -9     -9      0     -9     0.0     0.0      0    -9.00      0.0      0.0      0.0   100     0.0     0.000    -9.9    0.000    0.000      -9        0.00    0.000    0.000     255.0     91.6    0.30    57.0     123.0      66.0      60.6      46.9      40.8      30.0    0.000     0.000     0.000     0.000     0.000    0.30     0.00    0.00      0   -9.90   -9.00       13.0       22.0       22.0       22.0       22.0       22.0       22.0       22.0       22.0       22.0       22.0       22.0        0.0        0.0        0.0        0.0        0.0        0.0        0.0        0.0        0.0        0.0        0.0        0.0      0.0       4.0      16.7      22.2      27.7    363.88
    17     1  1997     9     1     253.9     0.0      0.0    0.0    0.0    0.0      0.0      0.0   -9.90      4.5      1.1     25      0.0      0.0   100      4.5     1.1      25     15.6    0.30     -9     -9     -9      0     -9     0.0     0.0      0    -9.00      0.0      0.0      0.0   100     0.0     0.000    -9.9    0.000    0.000      -9        0.00    0.000    0.000     253.9     90.5    0.30    55.9     123.0      66.0      60.6      47.0      40.8      30.0    0.000     0.000     0.000     0.000     0.000    0.30     0.00    0.00      0   -9.90   -9.00       11.9       22.0       22.0       22.0       22.0       22.0       22.0       22.0       22.0       22.0       22.0       22.0        0.0        0.0        0.0        0.0        0.0        0.0        0.0        0.0        0.0        0.0        0.0        0.0      0.0       4.0      17.1      22.6      28.0    363.88
    18     1  1997    10     2     253.0     0.0      0.0    0.0    0.0    0.0      0.0      0.0   -9.90      4.1      0.9     21      0.1      0.1   100      4.2     0.9      22     15.3    0.30     -9      0      0      0      0     0.8     0.8      0     0.01      0.1      0.1      0.1   100    17.7     0.002    -9.9    0.000    0.000     100        0.00    0.000    0.000     253.0     89.5    0.30    55.0     123.0      66.0      59.0      46.7      39.8      30.0    0.000     0.000     0.000     0.000     0.000    0.30     0.00    0.00      0   -9.90   -9.00       11.0       22.0       22.0       22.0       22.0       22.0       22.0       22.0       22.0       22.0       22.0       22.0        0.0        0.0        0.0        0.0        0.0        0.0        0.0        0.0        0.0        0.0        0.0        0.0      0.0       3.8      16.8      22.3      27.8    363.88
    19     1  1997    11     2     252.0     0.0      0.0    0.0    0.0    0.0      0.0      0.0   -9.90      4.8      0.9     18      0.1      0.1   100      4.9     0.9      19     16.1    0.30      9      0      0      0      0     0.9     0.9      0     0.02      0.1      0.1      0.1   100    17.7     0.005    -9.9    0.000    0.000      99        0.00    0.000    0.000     252.0     88.6    0.30    54.0     123.0      66.0      59.9      47.4      40.3      30.0    0.000     0.000     0.000     0.000     0.000    0.30     0.00    0.00      0   -9.90   -9.00       10.0       22.0       22.0       22.0       22.0       22.0       22.0       22.0       22.0       22.0       22.0       22.0        0.0        0.0        0.0        0.0        0.0        0.0        0.0        0.0        0.0        0.0        0.0        0.0      0.0       4.5      18.3      23.4      28.5    363.88
    20     1  1997    12     2     263.5     0.0     16.9    0.0   16.9    0.0      0.0      0.0   -9.90      5.3      5.3    100      0.1      0.1   100      5.4     5.4     100     15.8    0.30      0      0      0      0      0     1.1     1.1      0     0.02      0.1      0.1      0.1   100    17.7     0.009    -9.9    0.000    0.000      99        0.00    0.000    0.000     263.5    100.1    0.30    65.5     123.0      66.0      60.5      47.9      40.7      30.0    0.000     0.000     0.000     0.000     0.000    0.30     0.00    0.00      0   -9.90   -9.00       21.5       22.0       22.0       22.0       22.0       22.0       22.0       22.0       22.0       22.0       22.0       22.0        0.0        0.0        0.0        0.0        0.0        0.0        0.0        0.0        0.0        0.0        0.0        0.0      0.0       4.9      17.6      24.0      30.3    363.88
    21     1  1997    13     2     259.1     0.0      0.0    0.0    0.0    0.0      0.0      0.0   -9.90      5.0      4.3     85      0.1      0.1   100      5.1     4.4      86     15.7    0.30      0      0      0      0      0     1.2     1.2      0     0.02      0.1      0.1      0.1   100    17.7     0.013    -9.9    0.000    0.000      99        0.00    0.000    0.000     259.1     95.7    0.30    61.1     123.0      66.0      60.1      47.6      40.5      30.0    0.000     0.000     0.000     0.000     0.000    0.30     0.00    0.00      0   -9.90   -9.00       17.1       22.0       22.0       22.0       22.0       22.0       22.0       22.0       22.0       22.0       22.0       22.0        0.0        0.0        0.0        0.0        0.0        0.0        0.0        0.0        0.0        0.0        0.0        0.0      0.0       4.7      17.4      23.6      29.9    363.88
    22     1  1997    14     2     255.9     0.0      0.0    0.0    0.0    0.0      0.0      0.0   -9.90      6.7      3.1     46      0.2      0.2   100      6.9     3.3      48     16.8    0.30      1      0      0      0      0     1.5     1.5      0     0.03      0.2      0.2      0.2   100    17.7     0.017    -9.9    0.000    0.000      99        0.00    0.000    0.000     255.9     92.4    0.30    57.9     123.0      66.0      62.3      49.3      41.8      30.0    0.000     0.000     0.000     0.000     0.000    0.30     0.00    0.00      0   -9.90   -9.00       13.9       22.0       22.0       22.0       22.0       22.0       22.0       22.0       22.0       22.0       22.0       22.0        0.0        0.0        0.0        0.0        0.0        0.0        0.0        0.0        0.0        0.0        0.0        0.0      0.0       6.2      19.5      24.6      29.8    363.88
    23     1  1997    15     2     264.2     0.0     15.0    0.0   15.0    0.0      0.0      0.0   -9.90      6.5      6.5    100      0.2      0.2   100      6.7     6.7     100     16.3    0.30      0      0      0      0      0     1.7     1.7      0     0.03      0.2      0.2      0.2   100    17.7     0.023    -9.9    0.000    0.000      99        0.00    0.000    0.000     264.2    100.8    0.30    66.2     123.0      66.0      62.1      49.2      41.7      30.0    0.000     0.000     0.000     0.000     0.000    0.30     0.00    0.00      0   -9.90   -9.00       22.2       22.0       22.0       22.0       22.0       22.0       22.0       22.0       22.0       22.0       22.0       22.0        0.0        0.0        0.0        0.0        0.0        0.0        0.0        0.0        0.0        0.0        0.0        0.0      0.0       6.1      18.6      24.6      30.7    363.88
    24     1  1997    16     2     259.6     0.0      0.0    0.0    0.0    0.0      0.1      0.0   -9.90      5.5      4.3     77      0.2      0.2   100      5.7     4.5      78     16.1    0.30      0      0      0      0      0     2.0     2.0      0     0.04      0.2      0.2      0.2   100    17.7     0.029    -9.9    0.000    0.000      99        0.00    0.000    0.000     259.6     96.2    0.30    62.5     124.7      66.9      61.8      48.9      41.6      30.4    0.000     0.000     0.000     0.000     0.000    0.30     0.00    0.00      0   -9.90   -9.00       17.6       22.0       22.0       22.0       22.0       22.0       22.0       22.0       22.0       22.0       22.0       22.0        0.0        0.0        0.0        0.0        0.0        0.0        0.0        0.0        0.0        0.0        0.0        0.0      0.0       5.2      18.1      24.7      31.3    363.88
    25     1  1997    17     2     257.0     0.0      0.0    0.0    0.0    0.0      0.0      0.0   -9.90      5.3      2.3     44      0.2      0.2   100      5.5     2.5      46     15.6    0.31      0      0      0      0      0     2.4     2.4      0     0.04      0.2      0.2      0.2   100    17.7     0.037    -9.9    0.000    0.000      98        0.00    0.000    0.000     257.0     93.6    0.31    61.1     126.8      68.1      62.5      49.5      42.1      30.9    0.000     0.000     0.000     0.000     0.000    0.31     0.00    0.00      0   -9.90   -9.00       15.0       22.0       22.0       22.0       22.0       22.0       22.0       22.0       22.0       22.0       22.0       22.0        0.0        0.0        0.0        0.0        0.0        0.0        0.0        0.0        0.0        0.0        0.0        0.0      0.0       5.0      17.1      24.6      32.1    363.88
    26     1  1997    18     2     255.1     0.0      0.0    0.0    0.0    0.0      0.0      0.0   -9.90      5.6      1.7     30      0.3      0.3   100      5.9     2.0      33     16.2    0.31      2      0      0      0      0     2.8     2.8      0     0.05      0.3      0.3      0.3   100    17.7     0.045    -9.9    0.000    0.000      98        0.00    0.000    0.000     255.1     91.7    0.31    60.2     128.9      69.2      64.0      50.7      43.1      31.4    0.000     0.000     0.000     0.000     0.000    0.31     0.00    0.00      0   -9.90   -9.00       13.1       22.0       22.0       22.0       22.0       22.0       22.0       22.0       22.0       22.0       22.0       22.0        0.0        0.0        0.0        0.0        0.0        0.0        0.0        0.0        0.0        0.0        0.0        0.0      0.0       5.3      18.4      25.6      32.8    363.88
    27     1  1997    19     2     253.5     0.0      0.0    0.0    0.0    0.0      0.0      0.0   -9.90      5.7      1.3     22      0.3      0.3   100      6.0     1.6      26     15.8    0.32      6      0      0      0      0     3.2     3.2      0     0.06      0.3      0.3      0.3   100    17.7     0.055    -9.9    0.000    0.000      98        0.00    0.000    0.000     253.5     90.1    0.32    59.7     130.9      70.3      65.2      51.6      43.9      31.9    0.000     0.000     0.000     0.000     0.000    0.32     0.00    0.00      0   -9.90   -9.00       11.5       22.0       22.0       22.0       22.0       22.0       22.0       22.0       22.0       22.0       22.0       22.0        0.0        0.0        0.0        0.0        0.0        0.0        0.0        0.0        0.0        0.0        0.0        0.0      0.0       5.5      17.6      25.2      32.8    363.88
    28     1  1997    20     2     263.6     0.0     16.5    0.0   16.5    0.0      0.0      0.0   -9.90      6.0      6.0    100      0.4      0.4   100      6.4     6.4     100     16.9    0.32      0      0      0      0      0     3.8     3.8      0     0.07      0.4      0.4      0.4   100    17.7     0.067    -9.9    0.000    0.000      98        0.00    0.000    0.000     263.6    100.2    0.32    70.9     132.9      71.3      66.7      52.8      44.8      32.4    0.000     0.000     0.000     0.000     0.000    0.32     0.00    0.00      0   -9.90   -9.00       21.6       22.0       22.0       22.0       22.0       22.0       22.0       22.0       22.0       22.0       22.0       22.0        0.0        0.0        0.0        0.0        0.0        0.0        0.0        0.0        0.0        0.0        0.0        0.0      0.0       5.8      19.8      26.0      32.1    363.88
    29     1  1997    21     2     258.8     0.0      0.0    0.0    0.0    0.0      0.0      0.0   -9.90      5.5      4.4     79      0.4      0.4   100      5.9     4.8      81     16.9    0.33      0      0      0      0      0     4.4     4.4      0     0.08      0.4      0.4      0.4   100    17.7     0.081    -9.9    0.000    0.000      98        0.00    0.000    0.000     258.8     95.4    0.33    67.2     134.8      72.3      67.0      53.1      45.1      32.9    0.000     0.000     0.000     0.000     0.000    0.33     0.00    0.00      0   -9.90   -9.00       16.8       22.0       22.0       22.0       22.0       22.0       22.0       22.0       22.0       22.0       22.0       22.0        0.0        0.0        0.0        0.0        0.0        0.0        0.0        0.0        0.0        0.0        0.0        0.0      0.0       5.4      19.7      25.6      31.5    363.88
    30     1  1997    22     2     256.4     0.0      0.0    0.0    0.0    0.0      0.0      0.0   -9.90      4.6      2.0     44      0.4      0.4   100      5.0     2.4      48     16.6    0.33      0      0      0      0      0     5.2     5.2      0     0.09      0.4      0.4      0.4   100    17.7     0.097    -9.9    0.000    0.000      98        0.00    0.000    0.000     256.4     93.0    0.33    65.7     136.7      73.4      66.8      52.9      45.0      33.3    0.000     0.000     0.000     0.000     0.000    0.33     0.00    0.00      0   -9.90   -9.00       14.4       22.0       22.0       22.0       22.0       22.0       22.0       22.0       22.0       22.0       22.0       22.0        0.0        0.0        0.0        0.0        0.0        0.0        0.0        0.0        0.0        0.0        0.0        0.0      0.0       4.6      19.3      24.5      29.6    363.88
    31     1  1997    23     2     254.7     0.0      0.0    0.0    0.0    0.0      0.0      0.0   -9.90      4.0      1.2     31      0.4      0.4   100      4.5     1.7      37     16.5    0.34      0      0      0      0      0     6.1     6.1      0     0.11      0.4      0.4      0.4   100    17.7     0.116    -9.9    0.000    0.000      98        0.00    0.000    0.000     254.7     91.3    0.34    65.1     138.6      74.4      66.9      53.0      45.1      33.8    0.000     0.000     0.000     0.000     0.000    0.34     0.00    0.00      0   -9.90   -9.00       12.7       22.0       22.0       22.0       22.0       22.0       22.0       22.0       22.0       22.0       22.0       22.0        0.0        0.0        0.0        0.0        0.0        0.0        0.0        0.0        0.0        0.0        0.0        0.0      0.0       4.1      19.0      23.6      28.3    363.88
     1     2  1997    24     2     253.1     0.0      0.0    0.0    0.0    0.0      0.0      0.0   -9.90      4.6      1.1     23      0.6      0.6   100      5.2     1.6      32     16.5    0.34      3      0      0      0      0     7.1     7.1      0     0.12      0.6      0.6      0.6   100    17.7     0.138    -9.9    0.000    0.000      97        0.00    0.000    0.000     253.1     89.7    0.34    64.4     140.4      75.3      68.8      54.5      46.3      34.2    0.000     0.000     0.000     0.000     0.000    0.34     0.00    0.00      0   -9.90   -9.00       11.1       22.0       22.0       22.0       22.0       22.0       22.0       22.0       22.0       22.0       22.0       22.0        0.0        0.0        0.0        0.0        0.0        0.0        0.0        0.0        0.0        0.0        0.0        0.0      0.0       4.7      19.0      24.6      30.2    363.88
     2     2  1997    25     2     251.3     0.0      0.0    0.0    0.0    0.0      0.0      0.0   -9.90      5.4      0.9     17      0.8      0.8   100      6.2     1.7      28     17.1    0.35      9      0      0      0      0     8.2     8.2      0     0.14      0.8      0.8      0.8   100    17.7     0.163    -9.9    0.000    0.000      97        0.00    0.000    0.000     251.3     87.9    0.35    63.6     142.2      76.3      71.1      56.4      47.8      34.7    0.000     0.000     0.000     0.000     0.000    0.35     0.00    0.00      0   -9.90   -9.00        9.8       21.5       22.0       22.0       22.0       22.0       22.0       22.0       22.0       22.0       22.0       22.0        0.0        0.0        0.0        0.0        0.0        0.0        0.0        0.0        0.0        0.0        0.0        0.0      0.0       5.7      20.1      27.2      34.3    363.88
     3     2  1997    26     2     264.9     0.0     18.9    0.0   18.9    0.0      0.0      0.0   -9.90      4.5      4.5    100      0.8      0.8   100      5.3     5.3     100     17.1    0.35      0      0      0      0      0     9.6     9.6      0     0.16      0.8      0.8      0.8   100    17.7     0.192    -9.9    0.000    0.000      97        0.00    0.000    0.000     264.9    101.5    0.35    78.2     144.0      77.2      70.7      56.0      47.6      35.1    0.000     0.000     0.000     0.000     0.000    0.35     0.00    0.00      0   -9.90   -9.00       23.4       21.5       22.0       22.0       22.0       22.0       22.0       22.0       22.0       22.0       22.0       22.0        0.0        0.0        0.0        0.0        0.0        0.0        0.0        0.0        0.0        0.0        0.0        0.0      0.0       4.9      20.2      26.9      33.6    363.88
     4     2  1997    27     2     258.7     0.0      0.0    0.0    0.0    0.0      0.6      0.0   -9.90      5.0      4.6     92      1.1      1.1   100      6.0     5.6      93     17.9    0.36      0      0      0      0      0    11.3    11.3      0     0.19      1.1      1.1      1.1   100    17.7     0.226    -9.9    0.000    0.000      97        0.00    0.000    0.000     258.7     95.2    0.36    72.8     145.7      78.2      72.6      57.5      48.8      35.5    0.000     0.000     0.000     0.000     0.000    0.36     0.00    0.00      0   -9.90   -9.00       16.5       22.1       22.0       22.0       22.0       22.0       22.0       22.0       22.0       22.0       22.0       22.0        0.0        0.0        0.0        0.0        0.0        0.0        0.0        0.0        0.0        0.0        0.0        0.0      0.0       5.5      21.8      27.0      32.3    363.88
     5     2  1997    28     2     255.1     0.0      0.0    0.0    0.0    0.0      0.2      0.0   -9.90      4.7      2.2     47      1.2      1.2   100      5.9     3.4      58     17.6    0.36      0      0      0      0      0    13.2    13.2      0     0.22      1.2      1.2      1.2   100    17.7     0.265    -9.9    0.000    0.000      96        0.00    0.000    0.000     255.1     91.7    0.36    70.2     147.4      79.1      73.2      58.0      49.3      36.0    0.000     0.000     0.000     0.000     0.000    0.36     0.00    0.00      0   -9.90   -9.00       13.1       22.0       22.0       22.0       22.0       22.0       22.0       22.0       22.0       22.0       22.0       22.0        0.0        0.0        0.0        0.0        0.0        0.0        0.0        0.0        0.0        0.0        0.0        0.0      0.0       5.4      21.2      26.6      32.1    363.88
     6     2  1997    29     2     252.2     0.0      0.0    0.0    0.0    0.0      0.0      0.0   -9.90      4.9      1.4     28      1.5      1.5   100      6.4     2.9      45     17.8    0.36      5      0      0      0      0    15.4    15.4      0     0.25      1.5      1.5      1.5   100    17.7     0.310    -9.9    0.000    0.000      96        0.00    0.000    0.000     252.2     88.8    0.36    68.3     149.1      80.0      74.9      59.3      50.3      36.4    0.000     0.000     0.000     0.000     0.000    0.36     0.00    0.00      0   -9.90   -9.00       10.2       22.0       22.0       22.0       22.0       22.0       22.0       22.0       22.0       22.0       22.0       22.0        0.0        0.0        0.0        0.0        0.0        0.0        0.0        0.0        0.0        0.0        0.0        0.0      0.0       5.9      21.5      27.0      32.5    363.88
     7     2  1997    30     2     264.1     0.0     18.2    0.0   18.2    0.0      0.0      0.0   -9.90      4.6      4.6    100      1.7      1.7   100      6.4     6.4     100     17.5    0.37      0      0      0      0      0    18.1    18.1      0     0.29      1.7      1.7      1.7   100    17.7     0.362    -9.9    0.000    0.000      96        0.00    0.000    0.000     264.1    100.6    0.37    81.0     150.8      80.9      75.7      60.0      50.9      36.8    0.000     0.000     0.000     0.000     0.000    0.37     0.00    0.00      0   -9.90   -9.00       22.1       22.0       22.0       22.0       22.0       22.0       22.0       22.0       22.0       22.0       22.0       22.0        0.0        0.0        0.0        0.0        0.0        0.0        0.0        0.0        0.0        0.0        0.0        0.0      0.0       5.8      21.0      26.6      32.3    363.88
     8     2  1997    31     2     258.0     0.0      0.0    0.0    0.0    0.0      0.0      0.0   -9.90      4.3      4.1     94      2.0      2.0   100      6.3     6.0      96     16.4    0.37      0      0      0      0      0    21.2    21.2      0     0.34      2.0      2.0      2.0   100    17.7     0.423    -9.9    0.000    0.000      96        0.00    0.000    0.000     258.0     94.6    0.37    75.8     152.4      81.8      76.4      60.5      51.4      37.2    0.000     0.000     0.000     0.000     0.000    0.37     0.00    0.00      0   -9.90   -9.00       16.0       22.0       22.0       22.0       22.0       22.0       22.0       22.0       22.0       22.0       22.0       22.0        0.0        0.0        0.0        0.0        0.0        0.0        0.0        0.0        0.0        0.0        0.0        0.0      0.0       5.8      18.7      24.9      31.2    363.88
     9     2  1997    32     2     253.6     0.0      0.0    0.0    0.0    0.0      0.0      0.0   -9.90      4.3      1.9     44      2.4      2.4   100      6.7     4.3      64     17.1    0.38      1      0      0      0      0    24.9    24.9      0     0.39      2.4      2.4      2.4   100    17.7     0.492    -9.9    0.000    0.000      96        0.00    0.000    0.000     253.6     90.2    0.38    72.3     154.1      82.7      78.0      61.8      52.4      37.6    0.000     0.000     0.000     0.000     0.000    0.38     0.00    0.00      0   -9.90   -9.00       11.6       22.0       22.0       22.0       22.0       22.0       22.0       22.0       22.0       22.0       22.0       22.0        0.0        0.0        0.0        0.0        0.0        0.0        0.0        0.0        0.0        0.0        0.0        0.0      0.0       6.2      20.3      25.6      31.0    363.88
    10     2  1997    33     2     264.3     0.0     17.1    0.0   17.1    0.0      0.0      0.0   -9.90      3.8      3.8    100      2.7      2.7   100      6.4     6.4     100     16.2    0.38      0      0      0      0      0    29.2    29.2      0     0.45      2.7      2.7      2.7   100    17.7     0.571    -9.9    0.000    0.000      96        0.00    0.000    0.000     264.3    100.9    0.38    83.9     155.7      83.5      78.3      62.0      52.6      38.0    0.000     0.000     0.000     0.000     0.000    0.38     0.00    0.00      0   -9.90   -9.00       22.3       22.0       22.0       22.0       22.0       22.0       22.0       22.0       22.0       22.0       22.0       22.0        0.0        0.0        0.0        0.0        0.0        0.0        0.0        0.0        0.0        0.0        0.0        0.0      0.0       6.0      18.4      24.8      31.1    363.88
    11     2  1997    34     2     258.4     0.0      0.0    0.0    0.0    0.0      0.2      0.0   -9.90      3.0      3.0    100      2.7      2.7   100      5.7     5.7     100     16.0    0.38      0      0      0      0      0    34.3    34.3      0     0.51      2.7      2.7      2.7   100    17.7     0.661    -9.9    0.000    0.000      96        0.00    0.000    0.000     258.4     95.0    0.38    78.7     157.3      84.4      78.0      61.8      52.5      38.4    0.000     0.000     0.000     0.000     0.000    0.38     0.00    0.00      0   -9.90   -9.00       16.3       22.0       22.0       22.0       22.0       22.0       22.0       22.0       22.0       22.0       22.0       22.0        0.0        0.0        0.0        0.0        0.0        0.0        0.0        0.0        0.0        0.0        0.0        0.0      0.0       5.3      18.0      24.8      31.6    363.88
    12     2  1997    35     2     252.2     0.0      0.0    0.0    0.0    0.0      0.1      0.0   -9.90      3.1      2.5     81      3.6      3.6   100      6.7     6.1      91     16.9    0.39      1      0      0      0      0    40.0    40.0      0     0.57      3.6      3.6      3.6   100    17.7     0.763    -9.9    0.000    0.000      96        0.00    0.000    0.000     252.2     88.8    0.39    73.5     158.8      85.2      80.4      63.7      54.0      38.7    0.000     0.000     0.000     0.000     0.000    0.39     0.00    0.00      0   -9.90   -9.00       10.2       22.0       22.0       22.0       22.0       22.0       22.0       22.0       22.0       22.0       22.0       22.0        0.0        0.0        0.0        0.0        0.0        0.0        0.0        0.0        0.0        0.0        0.0        0.0      0.0       6.2      19.9      25.9      31.9    363.88
    13     2  1997    36     2     263.6     0.0     18.4    0.0   18.4    0.0      0.0      0.0   -9.90      2.9      2.9    100      4.2      4.2   100      7.1     7.1     100     17.4    0.39      0      0      0      0      0    45.2    45.2      0     0.63      4.2      4.2      4.2   100    17.7     0.875    -9.9    0.000    0.000      96        0.00    0.000    0.000     263.6    100.2    0.39    85.6     160.4      86.1      81.9      64.9      54.9      39.1    0.000     0.000     0.000     0.000     0.000    0.39     0.00    0.00      0   -9.90   -9.00       21.6       22.0       22.0       22.0       22.0       22.0       22.0       22.0       22.0       22.0       22.0       22.0        0.0        0.0        0.0        0.0        0.0        0.0        0.0        0.0        0.0        0.0        0.0        0.0      0.0       6.6      20.7      26.9      33.1    363.88
    14     2  1997    37     2     256.9     0.0      0.0    0.0    0.0    0.0      0.0      0.0   -9.90      2.4      2.4    100      4.2      4.2   100      6.6     6.6     100     17.1    0.39      0      0      0      0      0    49.6    49.6      0     0.68      4.2      4.2      4.2   100    17.7     0.995    -9.9    0.000    0.000      96        0.00    0.000    0.000     256.9     93.5    0.39    79.8     161.9      86.9      81.9      64.9      55.0      39.5    0.000     0.000     0.000     0.000     0.000    0.39     0.00    0.00      0   -9.90   -9.00       14.9       22.0       22.0       22.0       22.0       22.0       22.0       22.0       22.0       22.0       22.0       22.0        0.0        0.0        0.0        0.0        0.0        0.0        0.0        0.0        0.0        0.0        0.0        0.0      0.0       6.2      20.2      26.5      32.8    363.88
    15     2  1997    38     2     251.5     0.0      0.0    0.0    0.0    0.0      0.0      0.0   -9.90      1.8      1.8     97      3.7      3.7   100      5.5     5.5      99     16.9    0.40      0      0      0      0      0    53.3    53.3      0     0.71      3.7      3.7      3.7   100    17.7     1.121    -9.9    0.000    0.000      96        0.00    0.000    0.000     251.5     88.0    0.40    75.2     163.4      87.7      80.9      64.1      54.4      39.9    0.000     0.000     0.000     0.000     0.000    0.40     0.00    0.00      0   -9.90   -9.00        9.5       22.0       22.0       22.0       22.0       22.0       22.0       22.0       22.0       22.0       22.0       22.0        0.0        0.0        0.0        0.0        0.0        0.0        0.0        0.0        0.0        0.0        0.0        0.0      0.0       5.2      19.8      27.2      34.6    363.88
    16     2  1997    39     2     247.2     0.0      0.0    0.0    0.0    0.0      0.0      0.0   -9.90      1.7      0.5     27      3.8      3.8   100      5.5     4.3      78     16.9    0.40      7      0      0      0      0    56.3    56.3      0     0.74      3.8      3.8      3.8   100    17.7     1.252    -9.9    0.000    0.000      97        0.00    0.000    0.000     247.2     83.8    0.40    71.7     165.0      88.5      81.6      64.6      54.9      40.2    0.000     0.000     0.000     0.000     0.000    0.40     0.00    0.00      0   -9.90   -9.00        9.0       18.4       21.8       22.0       22.0       22.0       22.0       22.0       22.0       22.0       22.0       22.0        0.0        0.0        0.0        0.0        0.0        0.0        0.0        0.0        0.0        0.0        0.0        0.0      0.0       5.2      19.8      26.7      33.6    363.88
    17     2  1997    40     2     263.3     0.0     22.3    0.0   22.3    0.0      0.0      0.0   -9.90      1.7      1.7    100      4.4      4.4   100      6.2     6.2     100     17.4    0.41      0      0      0      0      0    59.1    59.1      0     0.77      4.4      4.4      4.4   100    17.7     1.388    -9.9    0.000    0.000      97        0.00    0.000    0.000     263.3     99.9    0.41    88.6     166.5      89.3      83.5      66.1      56.1      40.6    0.000     0.000     0.000     0.000     0.000    0.41     0.00    0.00      0   -9.90   -9.00       25.2       18.4       21.8       22.0       22.0       22.0       22.0       22.0       22.0       22.0       22.0       22.0        0.0        0.0        0.0        0.0        0.0        0.0        0.0        0.0        0.0        0.0        0.0        0.0      0.0       5.8      20.8      27.9      35.0    363.88
    18     2  1997    41     2     256.8     0.0      0.0    0.0    0.0    0.0      0.0      0.0   -9.90      1.7      1.7    100      4.9      4.9   100      6.6     6.6     100     16.8    0.41      0      0      0      0      0    61.4    61.4      0     0.79      4.9      4.9      4.9   100    17.7     1.527    -9.9    0.000    0.000      97        0.00    0.000    0.000     256.8     93.4    0.41    82.9     167.9      90.1      84.9      67.2      57.0      41.0    0.000     0.000     0.000     0.000     0.000    0.41     0.00    0.00      0   -9.90   -9.00       15.7       21.3       21.8       22.0       22.0       22.0       22.0       22.0       22.0       22.0       22.0       22.0        0.0        0.0        0.0        0.0        0.0        0.0        0.0        0.0        0.0        0.0        0.0        0.0      0.0       6.2      19.5      25.9      32.4    363.88
    19     2  1997    42     2     250.8     0.0      0.0    0.0    0.0    0.0      0.0      0.0   -9.90      1.5      1.5    100      4.5      4.5   100      6.0     6.0     100     17.2    0.41      1      0      0      0      0    63.4    63.4      0     0.80      4.5      4.5      4.5   100    17.7     1.670    -9.9    0.000    0.000      97        0.00    0.000    0.000     250.8     87.4    0.41    77.7     169.4      90.9      84.6      67.0      56.9      41.3    0.000     0.000     0.000     0.000     0.000    0.41     0.00    0.00      0   -9.90   -9.00        9.8       21.2       21.8       22.0       22.0       22.0       22.0       22.0       22.0       22.0       22.0       22.0        0.0        0.0        0.0        0.0        0.0        0.0        0.0        0.0        0.0        0.0        0.0        0.0      0.0       5.6      20.4      26.0      31.6    363.88
    20     2  1997    43     2     247.1     0.1      0.0    0.0    0.1    0.0      0.0      0.0   -9.90      1.0      0.4     35      3.5      3.5   100      4.5     3.9      85     16.7    0.42      5      0      0      0      0    65.0    65.0      0     0.82      3.5      3.5      3.5   100    17.7     1.815    -9.9    0.000    0.000      97        0.00    0.000    0.000     247.1     83.6    0.42    74.7     170.9      91.7      82.8      65.6      55.9      41.7    0.000     0.000     0.000     0.000     0.000    0.42     0.00    0.00      0   -9.90   -9.00        9.6       17.7       21.8       22.0       22.0       22.0       22.0       22.0       22.0       22.0       22.0       22.0        0.0        0.0        0.0        0.0        0.0        0.0        0.0        0.0        0.0        0.0        0.0        0.0      0.1       4.3      19.4      24.1      28.9    363.88
    21     2  1997    44     2     263.8     0.2     21.3    0.0   21.5    0.0      0.0      0.0   -9.90      1.0      1.0    100      3.7      3.7   100      4.8     4.8     100     17.3    0.42      0      0      0      0      0    66.5    66.5      0     0.83      3.7      3.7      3.7   100    17.7     1.962    -9.9    0.000    0.000      97        0.00    0.000    0.000     263.8    100.4    0.42    92.2     172.3      92.5      83.9      66.5      56.6      42.0    0.000     0.000     0.000     0.000     0.000    0.42     0.00    0.00      0   -9.90   -9.00       26.3       17.7       21.8       22.0       22.0       22.0       22.0       22.0       22.0       22.0       22.0       22.0        0.0        0.0        0.0        0.0        0.0        0.0        0.0        0.0        0.0        0.0        0.0        0.0      0.2       4.5      20.6      24.7      28.8    363.88
    22     2  1997    45     2     257.9     0.0      0.0    0.0    0.0    0.0      0.0      0.0   -9.90      1.2      1.2    100      4.7      4.7   100      5.9     5.9     100     16.4    0.42      0      0      0      0      0    67.8    67.8      0     0.84      4.7      4.7      4.7   100    17.7     2.111    -9.9    0.000    0.000      98        0.00    0.000    0.000     257.9     94.4    0.42    87.1     173.7      93.2      86.7      68.7      58.3      42.4    0.000     0.000     0.000     0.000     0.000    0.42     0.00    0.00      0   -9.90   -9.00       16.4       21.7       21.8       22.0       22.0       22.0       22.0       22.0       22.0       22.0       22.0       22.0        0.0        0.0        0.0        0.0        0.0        0.0        0.0        0.0        0.0        0.0        0.0        0.0      0.0       5.6      18.8      24.6      30.3    363.88
    23     2  1997    46     2     250.0     0.0      0.0    0.0    0.0    0.0      0.0      0.0   -9.90      1.6      1.6    100      6.3      6.3   100      7.9     7.9     100     16.9    0.43      3      0      0      0      0    68.8    68.8      0     0.85      6.3      6.3      6.3   100    17.7     2.262    -9.9    0.000    0.000      98        0.00    0.000    0.000     250.0     86.6    0.43    80.0     175.1      94.0      91.0      72.0      60.9      42.7    0.000     0.000     0.000     0.000     0.000    0.43     0.00    0.00      0   -9.90   -9.00       10.3       19.9       21.8       22.0       22.0       22.0       22.0       22.0       22.0       22.0       22.0       22.0        0.0        0.0        0.0        0.0        0.0        0.0        0.0        0.0        0.0        0.0        0.0        0.0      0.0       7.4      19.7      25.8      31.9    363.88
    24     2  1997    47     2     264.5     0.0     21.9    0.0   21.9    0.0      0.0      0.0   -9.90      1.4      1.4    100      6.0      6.0   100      7.4     7.4     100     16.4    0.43      0      0      0      0      0    69.7    69.7      0     0.86      6.0      6.0      6.0   100    17.7     2.413    -9.9    0.000    0.000      98        0.00    0.000    0.000     264.5    101.1    0.43    95.2     176.6      94.7      90.8      71.9      60.9      43.1    0.000     0.000     0.000     0.000     0.000    0.43     0.00    0.00      0   -9.90   -9.00       26.0       18.8       21.8       22.0       22.0       22.0       22.0       22.0       22.0       22.0       22.0       22.0        0.0        0.0        0.0        0.0        0.0        0.0        0.0        0.0        0.0        0.0        0.0        0.0      0.0       7.0      18.9      26.6      34.4    363.88
    25     2  1997    48     2     258.3     0.0      0.0    0.0    0.0    0.0      0.1      0.0   -9.90      1.1      1.1    100      4.9      4.9   100      6.1     6.1     100     16.3    0.43      0      0      0      0      0    70.5    70.5      0     0.86      4.9      4.9      4.9   100    17.7     2.566    -9.9    0.000    0.000      98        0.00    0.000    0.000     258.3     94.9    0.43    89.8     178.0      95.5      89.1      70.6      59.9      43.4    0.000     0.000     0.000     0.000     0.000    0.43     0.00    0.00      0   -9.90   -9.00       16.3       22.0       22.0       22.0       22.0       22.0       22.0       22.0       22.0       22.0       22.0       22.0        0.0        0.0        0.0        0.0        0.0        0.0        0.0        0.0        0.0        0.0        0.0        0.0      0.0       5.7      18.6      26.8      34.9    363.88
    26     2  1997    49     3     251.8     0.0      0.0    0.0    0.0    0.0      0.0      0.0   -9.90      1.2      1.2    100      5.3      5.3   100      6.5     6.5     100     17.5    0.44      0      0      0      0      0    71.2    71.2      0     0.87      5.3      5.3      5.3   100    17.7     2.720    -9.9    0.000    0.000      98        0.00    0.000    0.000     251.8     88.4    0.44    84.0     179.3      96.2      90.5      71.7      60.8      43.7    0.000     0.000     0.000     0.000     0.000    0.44     0.00    0.00      0   -9.90   -9.00       10.5       21.3       22.0       22.0       22.0       22.0       22.0       22.0       22.0       22.0       22.0       22.0        0.0        0.0        0.0        0.0        0.0        0.0        0.0        0.0        0.0        0.0        0.0        0.0      0.0       6.1      21.0      27.6      34.1    363.88
    27     2  1997    50     3     245.1     0.0      0.0    0.0    0.0    0.0      0.0      0.0   -9.90      1.2      1.2    100      5.5      5.5   100      6.7     6.7     100     18.3    0.44      8      0      0      0      0    71.7    71.7      0     0.87      5.5      5.5      5.5   100    17.7     2.875    -9.9    0.000    0.000      98        0.00    0.000    0.000     245.1     81.7    0.44    78.1     180.7      97.0      91.6      72.6      61.5      44.1    0.000     0.000     0.000     0.000     0.000    0.44     0.00    0.00      0   -9.90   -9.00        9.3       17.5       20.3       22.0       22.0       22.0       22.0       22.0       22.0       22.0       22.0       22.0        0.0        0.0        0.0        0.0        0.0        0.0        0.0        0.0        0.0        0.0        0.0        0.0      0.0       6.3      22.6      28.9      35.3    363.88
    28     2  1997    51     3     264.3     0.0     25.6    0.0   25.6    0.0      0.0      0.0   -9.90      1.1      1.1    100      5.3      5.3   100      6.4     6.4     100     18.3    0.44      0      0      0      0      0    72.2    72.2      0     0.87      5.3      5.3      5.3   100    17.7     3.030    -9.9    0.000    0.000      98        0.00    0.000    0.000     264.3    100.9    0.44    98.0     182.1      97.7      91.7      72.6      61.6      44.4    0.000     0.000     0.000     0.000     0.000    0.44     0.00    0.00      0   -9.90   -9.00       28.9       17.1       20.3       22.0       22.0       22.0       22.0       22.0       22.0       22.0       22.0       22.0        0.0        0.0        0.0        0.0        0.0        0.0        0.0        0.0        0.0        0.0        0.0        0.0      0.0       6.0      22.6      28.6      34.5    363.88
     1     3  1997    52     3     258.4     0.0      0.0    0.0    0.0    0.0      0.0      0.0   -9.90      1.0      1.0    100      4.9      4.9   100      5.9     5.9     100     18.6    0.45      0      0      0      0      0    72.6    72.6      0     0.88      4.9      4.9      4.9   100    17.7     3.186     1.5    0.048    0.959      98        0.02    0.000    0.000     258.4     95.0    0.45    92.9     183.4      98.4      91.5      72.5      61.5      44.7    0.000     0.000     0.000     0.000     0.000    0.45     0.00    0.00      0   -9.90   -9.00       16.5       22.1       21.8       22.0       22.0       22.0       22.0       22.0       22.0       22.0       22.0       22.0        0.0        0.0        0.0        0.0        0.0        0.0        0.0        0.0        0.0        0.0        0.0        0.0      0.0       5.6      23.2      28.6      34.0    363.88
     2     3  1997    53     3     253.7     0.0      0.0    0.0    0.0    0.0      0.0      0.0   -9.90      0.8      0.8    100      4.0      4.0   100      4.8     4.8     100     18.1    0.45      0      0      0      0      0    72.9    72.9      0     0.88      4.0      4.0      4.0   100    17.7     3.342     1.7    0.058    1.152      98        0.02    0.000    0.000     253.7     90.2    0.45    88.8     184.8      99.2      90.0      71.3      60.7      45.1    0.000     0.000     0.000     0.000     0.000    0.45     0.00    0.00      0   -9.90   -9.00       11.8       22.0       21.9       22.0       22.0       22.0       22.0       22.0       22.0       22.0       22.0       22.0        0.0        0.0        0.0        0.0        0.0        0.0        0.0        0.0        0.0        0.0        0.0        0.0      0.0       4.5      22.2      26.2      30.2    363.88
     3     3  1997    54     3     249.1     0.2      0.0    0.0    0.2    0.0      0.0      0.0   -9.90      0.8      0.5     60      4.2      4.2   100      5.0     4.7      93     17.4    0.45      1      0      0      0      0    73.2    73.2      0     0.88      4.2      4.2      4.2   100    17.7     3.499     2.0    0.069    1.380      98        0.03    0.000    0.000     249.1     85.7    0.45    85.0     186.1      99.9      91.2      72.3      61.5      45.4    0.000     0.000     0.000     0.000     0.000    0.45     0.00    0.00      0   -9.90   -9.00        8.8       20.5       21.9       22.0       22.0       22.0       22.0       22.0       22.0       22.0       22.0       22.0        0.0        0.0        0.0        0.0        0.0        0.0        0.0        0.0        0.0        0.0        0.0        0.0      0.2       4.8      20.7      24.4      28.1    363.88
     4     3  1997    55     3     244.1     0.0      0.0    0.0    0.0    0.0      0.0      0.0   -9.90      1.0      0.2     20      4.9      4.9   100      5.8     5.1      87     16.1    0.46     10      0      0      0      0    73.5    73.5      0     0.88      4.9      4.9      4.9   100    17.7     3.656     2.3    0.082    1.649      98        0.03    0.000    0.000     244.1     80.6    0.46    80.6     187.5     100.6      93.4      74.0      62.8      45.7    0.000     0.000     0.000     0.000     0.000    0.46     0.00    0.00      0   -9.90   -9.00        8.6       16.7       20.8       22.0       22.0       22.0       22.0       22.0       22.0       22.0       22.0       22.0        0.0        0.0        0.0        0.0        0.0        0.0        0.0        0.0        0.0        0.0        0.0        0.0      0.0       5.5      18.1      23.3      28.5    363.88
     5     3  1997    56     3     263.4     0.0     25.8    0.0   25.8    0.0      0.0      0.0   -9.90      1.0      1.0    100      5.4      5.4   100      6.5     6.5     100     15.8    0.46      0      0      0      0      0    73.9    73.9      0     0.89      5.4      5.4      5.4   100    17.7     3.813     2.6    0.098    1.967      99        0.04    0.000    0.000     263.4    100.0    0.46   100.0     187.5     100.6      94.7      75.0      63.6      45.7    0.000     0.000     0.000     0.000     0.000    0.46     0.00    0.00      0   -9.90   -9.00       28.4       16.1       20.8       22.0       22.0       22.0       22.0       22.0       22.0       22.0       22.0       22.0        0.0        0.0        0.0        0.0        0.0        0.0        0.0        0.0        0.0        0.0        0.0        0.0      0.0       6.1      17.6      24.1      30.7    363.88
     6     3  1997    57     3     256.2     0.0      0.0    0.0    0.0    0.0      0.0      0.0   -9.90      1.1      1.1    100      6.1      6.1   100      7.2     7.2     100     16.2    0.46     -9      0      0      0      0    74.0    74.0      0     0.89      6.1      6.1      6.1   100    17.7     3.971     2.9    0.117    2.339      99        0.04    0.000    0.000     256.2     92.7    0.46    92.7     187.5     100.6      96.1      76.1      64.4      45.7    0.000     0.000     0.000     0.000     0.000    0.46     0.00    0.00      0   -9.90   -9.00       16.4       20.8       21.0       22.0       22.0       22.0       22.0       22.0       22.0       22.0       22.0       22.0        0.0        0.0        0.0        0.0        0.0        0.0        0.0        0.0        0.0        0.0        0.0        0.0      0.0       6.8      18.4      24.8      31.2    363.88
     7     3  1997    58     3     248.6     0.0      0.0    0.0    0.0    0.0      0.0      0.0   -9.90      1.2      1.2    100      6.4      6.4   100      7.6     7.6     100     17.1    0.46     -9      0      0      0      0    74.2    74.2      0     0.89      6.4      6.4      6.4   100    17.7     4.129     3.4    0.139    2.775      99        0.05    0.000    0.000     248.6     85.2    0.46    85.2     187.5     100.6      96.8      76.6      64.9      45.7    0.000     0.000     0.000     0.000     0.000    0.46     0.00    0.00      0   -9.90   -9.00       10.6       19.1       21.0       22.0       22.0       22.0       22.0       22.0       22.0       22.0       22.0       22.0        0.0        0.0        0.0        0.0        0.0        0.0        0.0        0.0        0.0        0.0        0.0        0.0      0.0       7.2      20.1      26.4      32.8    363.88
     8     3  1997    59     3     262.9     0.0     23.0    0.0   23.0    0.0      0.0      0.0   -9.90      1.4      1.4    100      7.3      7.3   100      8.6     8.6     100     17.7    0.46     -9      0      0      0      0    74.3    74.3      0     0.89      7.3      7.3      7.3   100    17.7     4.287     3.8    0.164    3.285      99        0.06    0.000    0.000     262.9     99.5    0.46    99.5     187.5     100.6      98.9      78.3      66.1      45.7    0.000     0.000     0.000     0.000     0.000    0.46     0.00    0.00      0   -9.90   -9.00       27.3       16.7       21.0       22.0       22.0       22.0       22.0       22.0       22.0       22.0       22.0       22.0        0.0        0.0        0.0        0.0        0.0        0.0        0.0        0.0        0.0        0.0        0.0        0.0      0.0       8.2      21.4      28.3      35.2    363.88
     9     3  1997    60     3     254.8     0.0      0.0    0.0    0.0    0.0      0.0      0.0   -9.90      1.3      1.3    100      6.9      6.9   100      8.2     8.2     100     17.4    0.46     -9      0      0      0      0    74.4    74.4      0     0.89      6.9      6.9      6.9   100    17.7     4.446     4.4    0.194    3.879      99        0.07    0.000    0.000     254.8     91.4    0.46    91.4     187.5     100.6      97.9      77.6      65.6      45.7    0.000     0.000     0.000     0.000     0.000    0.46     0.00    0.00      0   -9.90   -9.00       16.2       19.6       21.0       22.0       22.0       22.0       22.0       22.0       22.0       22.0       22.0       22.0        0.0        0.0        0.0        0.0        0.0        0.0        0.0        0.0        0.0        0.0        0.0        0.0      0.0       7.7      20.8      28.0      35.1    363.88
    10     3  1997    61     3     246.8     0.0      0.0    0.0    0.0    0.0      0.0      0.0   -9.90      1.2      1.2    100      6.7      6.7   100      8.0     8.0     100     17.6    0.46     -9      0      0      0      0    74.5    74.5      0     0.89      6.7      6.7      6.7   100    17.7     4.604     5.0    0.228    4.569      99        0.08    0.000    0.000     246.8     83.4    0.46    83.4     187.5     100.6      97.6      77.3      65.4      45.7    0.000     0.000     0.000     0.000     0.000    0.46     0.00    0.00      0   -9.90   -9.00       10.4       17.4       21.0       22.0       22.0       22.0       22.0       22.0       22.0       22.0       22.0       22.0        0.0        0.0        0.0        0.0        0.0        0.0        0.0        0.0        0.0        0.0        0.0        0.0      0.0       7.6      21.1      27.0      32.9    363.88
    11     3  1997    62     3     264.5     0.0     25.2    0.0   25.2    0.0      0.0      0.0   -9.90      1.2      1.2    100      6.4      6.4   100      7.5     7.5     100     17.2    0.46     -9      0      0      0      0    74.6    74.6      0     0.89      6.4      6.4      6.4   100    17.7     4.762     5.6    0.268    5.368      99        0.09    0.000    0.000     264.5    101.0    0.46   101.0     187.5     100.6      96.8      76.6      64.8      45.7    0.000     0.000     0.000     0.000     0.000    0.46     0.00    0.00      0   -9.90   -9.00       29.6       15.9       21.0       22.0       22.0       22.0       22.0       22.0       22.0       22.0       22.0       22.0        0.0        0.0        0.0        0.0        0.0        0.0        0.0        0.0        0.0        0.0        0.0        0.0      0.0       7.1      20.5      27.6      34.7    363.88
    12     3  1997    63     3     257.0     0.0      0.0    0.0    0.0    0.0      0.0      0.0   -9.90      1.2      1.2    100      6.3      6.3   100      7.5     7.5     100     18.0    0.46     -9      0      0      0      0    74.6    74.6      0     0.89      6.3      6.3      6.3   100    17.7     4.920     6.4    0.314    6.290      99        0.10    0.000    0.000     257.0     93.6    0.46    93.6     187.5     100.6      96.6      76.5      64.8      45.7    0.000     0.000     0.000     0.000     0.000    0.46     0.00    0.00      0   -9.90   -9.00       16.4       20.7       21.9       22.0       22.0       22.0       22.0       22.0       22.0       22.0       22.0       22.0        0.0        0.0        0.0        0.0        0.0        0.0        0.0        0.0        0.0        0.0        0.0        0.0      0.0       7.1      22.0      28.5      35.0    363.88
    13     3  1997    64     3     250.6     0.0      0.0    0.0    0.0    0.0      0.0      0.0   -9.90      1.0      1.0    100      5.4      5.4   100      6.3     6.3     100     17.9    0.46     -9      0      0      0      0    74.7    74.7      0     0.89      5.4      5.4      5.4   100    17.7     5.078     7.2    0.367    7.349      99        0.12    0.000    0.000     250.6     87.2    0.46    87.2     187.5     100.6      94.5      74.8      63.5      45.7    0.000     0.000     0.000     0.000     0.000    0.46     0.00    0.00      0   -9.90   -9.00       10.7       20.0       21.9       22.0       22.0       22.0       22.0       22.0       22.0       22.0       22.0       22.0        0.0        0.0        0.0        0.0        0.0        0.0        0.0        0.0        0.0        0.0        0.0        0.0      0.0       6.0      21.7      26.6      31.6    363.88
    14     3  1997    65     3     244.7     0.0      0.0    0.0    0.0    0.0      0.0      0.0   -9.90      0.9      0.9    100      5.0      5.0   100      5.9     5.9     100     17.4    0.46     -9      0      0      0      0    74.7    74.7      0     0.89      5.0      5.0      5.0   100    17.7     5.236     8.2    0.428    8.560      99        0.13    0.000    0.000     244.7     81.3    0.46    81.3     187.5     100.6      93.6      74.1      62.9      45.7    0.000     0.000     0.000     0.000     0.000    0.46     0.00    0.00      0   -9.90   -9.00        9.8       16.2       20.8       22.0       22.0       22.0       22.0       22.0       22.0       22.0       22.0       22.0        0.0        0.0        0.0        0.0        0.0        0.0        0.0        0.0        0.0        0.0        0.0        0.0      0.0       5.6      20.9      26.0      31.1    363.88
    15     3  1997    66     3     264.4     0.0     25.1    0.0   25.1    0.0      0.0      0.0   -9.90      0.8      0.8    100      4.6      4.6   100      5.4     5.4     100     16.9    0.46     -9      0      0      0      0    74.8    74.8      0     0.89      4.6      4.6      4.6   100    17.7     5.394     9.2    0.497    9.941      99        0.15    0.000    0.000     264.4    101.0    0.46   101.0     187.5     100.6      92.7      73.4      62.4      45.7    0.000     0.000     0.000     0.000     0.000    0.46     0.00    0.00      0   -9.90   -9.00       29.5       16.2       20.8       22.0       22.0       22.0       22.0       22.0       22.0       22.0       22.0       22.0        0.0        0.0        0.0        0.0        0.0        0.0        0.0        0.0        0.0        0.0        0.0        0.0      0.0       5.2      19.9      25.0      30.1    363.88
    16     3  1997    67     3     259.0     0.0      0.0    0.0    0.0    0.0      0.0      0.0   -9.90      0.8      0.8    100      4.6      4.6   100      5.5     5.5     100     16.6    0.46     -9      0      0      0      0    74.8    74.8      0     0.89      4.6      4.6      4.6   100    17.7     5.551    10.4    0.575   11.506      99        0.17    0.000    0.000     259.0     95.6    0.46    95.6     187.5     100.6      92.8      73.5      62.4      45.7    0.000     0.000     0.000     0.000     0.000    0.46     0.00    0.00      0   -9.90   -9.00       17.0       22.1       21.9       22.0       22.0       22.0       22.0       22.0       22.0       22.0       22.0       22.0        0.0        0.0        0.0        0.0        0.0        0.0        0.0        0.0        0.0        0.0        0.0        0.0      0.0       5.2      19.1      24.8      30.5    363.88
    17     3  1997    68     3     253.4     0.0      0.0    0.0    0.0    0.0      0.0      0.0   -9.90      0.9      0.9    100      4.7      4.7   100      5.5     5.5     100     17.1    0.46     -9      0      0      0      0    74.8    74.8      0     0.89      4.7      4.7      4.7   100    17.7     5.709    11.6    0.664   13.272      99        0.20    0.000    0.000     253.4     90.0    0.46    90.0     187.5     100.6      92.9      73.6      62.5      45.7    0.000     0.000     0.000     0.000     0.000    0.46     0.00    0.00      0   -9.90   -9.00       11.4       22.0       22.0       22.0       22.0       22.0       22.0       22.0       22.0       22.0       22.0       22.0        0.0        0.0        0.0        0.0        0.0        0.0        0.0        0.0        0.0        0.0        0.0        0.0      0.0       5.3      20.2      25.9      31.7    363.88
    18     3  1997    69     3     248.1     0.0      0.0    0.0    0.0    0.0      0.0      0.0   -9.90      0.8      0.8    100      4.5      4.5   100      5.4     5.4     100     18.0    0.46     -9      0      0      0      0    74.9    74.9      0     0.89      4.5      4.5      4.5   100    17.7     5.866    12.9    0.759   15.184      99        0.22    0.000    0.000     248.1     84.6    0.46    84.6     187.5     100.6      92.6      73.3      62.3      45.7    0.000     0.000     0.000     0.000     0.000    0.46     0.00    0.00      0   -9.90   -9.00        9.3       18.8       22.0       22.0       22.0       22.0       22.0       22.0       22.0       22.0       22.0       22.0        0.0        0.0        0.0        0.0        0.0        0.0        0.0        0.0        0.0        0.0        0.0        0.0      0.0       5.1      22.0      26.8      31.6    363.88
    19     3  1997    70     3     241.8     0.0      0.0    0.0    0.0    0.0      0.0      0.0   -9.90      1.0      1.0    100      5.3      5.3   100      6.2     6.2     100     18.1    0.46     -9      0      0      0      0    74.9    74.9      0     0.89      5.3      5.3      5.3   100    17.7     6.024    14.3    0.859   17.178      99        0.25    0.000    0.000     241.8     78.4    0.46    78.4     187.5     100.6      94.3      74.7      63.4      45.7    0.000     0.000     0.000     0.000     0.000    0.46     0.00    0.00      0   -9.90   -9.00        8.3       15.0       20.5       22.0       22.0       22.0       22.0       22.0       22.0       22.0       22.0       22.0        0.0        0.0        0.0        0.0        0.0        0.0        0.0        0.0        0.0        0.0        0.0        0.0      0.0       6.0      22.1      27.7      33.2    363.88
    20     3  1997    71     3     261.6     0.0     28.4    0.0   28.4    0.0      0.0      0.0   -9.90      1.3      1.3    100      7.3      7.3   100      8.7     8.7     100     17.6    0.46     -9      0      0      0      0    74.9    74.9      0     0.89      7.3      7.3      7.3   100    17.7     6.181    15.6    0.963   19.254      99        0.27    0.000    0.000     261.6     98.2    0.46    98.2     187.5     100.6      99.1      78.5      66.3      45.7    0.000     0.000     0.000     0.000     0.000    0.46     0.00    0.00      0   -9.90   -9.00       30.5       12.5       20.5       22.0       22.0       22.0       22.0       22.0       22.0       22.0       22.0       22.0        0.0        0.0        0.0        0.0        0.0        0.0        0.0        0.0        0.0        0.0        0.0        0.0      0.0       8.3      21.3      29.7      38.1    363.88
    21     3  1997    72     3     253.7     0.0      0.0    0.0    0.0    0.0      0.0      0.0   -9.90      1.2      1.2    100      6.7      6.7   100      7.9     7.9     100     18.2    0.46     -9      0      0      0      0    74.9    74.9      0     0.88      6.7      6.7      6.7   100    17.7     6.338    16.9    1.071   21.413      99        0.29    0.000    0.000     253.7     90.3    0.46    90.3     187.5     100.6      97.5      77.2      65.3      45.7    0.000     0.000     0.000     0.000     0.000    0.46     0.00    0.00      0   -9.90   -9.00       16.4       18.8       20.5       22.0       22.0       22.0       22.0       22.0       22.0       22.0       22.0       22.0        0.0        0.0        0.0        0.0        0.0        0.0        0.0        0.0        0.0        0.0        0.0        0.0      0.0       7.5      22.4      30.1      37.9    363.88
    22     3  1997    73     3     247.7     0.0      0.0    0.0    0.0    0.0      0.0      0.0   -9.90      0.9      0.9    100      5.1      5.1   100      6.0     6.0     100     18.1    0.46     -9      0      0      0      0    74.9    74.9      0     0.88      5.1      5.1      5.1   100    17.7     6.495    18.2    1.183   23.654      99        0.32    0.000    0.000     247.7     84.3    0.46    84.3     187.5     100.6      93.9      74.4      63.1      45.7    0.000     0.000     0.000     0.000     0.000    0.46     0.00    0.00      0   -9.90   -9.00       10.7       18.5       20.5       22.0       22.0       22.0       22.0       22.0       22.0       22.0       22.0       22.0        0.0        0.0        0.0        0.0        0.0        0.0        0.0        0.0        0.0        0.0        0.0        0.0      0.0       5.7      22.2      28.0      33.9    363.88
    23     3  1997    74     3     264.0     0.0     22.3    0.0   22.3    0.0      0.0      0.0   -9.90      0.9      0.9    100      5.1      5.1   100      6.0     6.0     100     17.4    0.46     -9      0      0      0      0    74.9    74.9      0     0.88      5.1      5.1      5.1   100    17.7     6.651    19.5    1.299   25.977      99        0.34    0.000    0.000     264.0    100.6    0.46   100.6     187.5     100.6      93.9      74.4      63.1      45.7    0.000     0.000     0.000     0.000     0.000    0.46     0.00    0.00      0   -9.90   -9.00       27.2       18.3       20.5       22.0       22.0       22.0       22.0       22.0       22.0       22.0       22.0       22.0        0.0        0.0        0.0        0.0        0.0        0.0        0.0        0.0        0.0        0.0        0.0        0.0      0.0       5.7      20.8      27.0      33.3    363.88
    24     3  1997    75     3     258.5     0.0      0.0    0.0    0.0    0.0      0.0      0.0   -9.90      0.9      0.9    100      4.7      4.7   100      5.5     5.5     100     17.7    0.46     -9      0      0      0      0    74.9    74.9      0     0.88      4.7      4.7      4.7   100    17.7     6.808    20.8    1.419   28.381      99        0.37    0.000    0.000     258.5     95.1    0.46    95.1     187.5     100.6      93.0      73.7      62.6      45.7    0.000     0.000     0.000     0.000     0.000    0.46     0.00    0.00      0   -9.90   -9.00       16.8       22.1       21.6       22.0       22.0       22.0       22.0       22.0       22.0       22.0       22.0       22.0        0.0        0.0        0.0        0.0        0.0        0.0        0.0        0.0        0.0        0.0        0.0        0.0      0.0       5.3      21.4      26.6      31.9    363.88
    25     3  1997    76     3     252.6     0.0      0.0    0.0    0.0    0.0      0.0      0.0   -9.90      0.9      0.9    100      4.9      4.9   100      5.8     5.8     100     18.1    0.46     -9      0      0      0      0    75.0    75.0      0     0.88      4.9      4.9      4.9   100    17.7     6.964    22.2    1.543   30.868      99        0.40    0.000    0.000     252.6     89.2    0.46    89.2     187.5     100.6      93.6      74.1      62.9      45.7    0.000     0.000     0.000     0.000     0.000    0.46     0.00    0.00      0   -9.90   -9.00       11.1       21.9       21.6       22.0       22.0       22.0       22.0       22.0       22.0       22.0       22.0       22.0        0.0        0.0        0.0        0.0        0.0        0.0        0.0        0.0        0.0        0.0        0.0        0.0      0.0       5.6      22.3      27.5      32.6    363.88
    26     3  1997    77     3     246.5     0.0      0.0    0.0    0.0    0.0      0.0      0.0   -9.90      0.9      0.9    100      5.1      5.1   100      6.1     6.1     100     17.6    0.46     -9      0      0      0      0    75.0    75.0      0     0.88      5.1      5.1      5.1   100    17.7     7.120    23.5    1.672   33.436      99        0.42    0.000    0.000     246.5     83.1    0.46    83.1     187.5     100.6      94.1      74.5      63.2      45.7    0.000     0.000     0.000     0.000     0.000    0.46     0.00    0.00      0   -9.90   -9.00        9.8       18.1       20.6       22.0       22.0       22.0       22.0       22.0       22.0       22.0       22.0       22.0        0.0        0.0        0.0        0.0        0.0        0.0        0.0        0.0        0.0        0.0        0.0        0.0      0.0       5.8      21.3      27.8      34.3    363.88
    27     3  1997    78     3     264.6     0.0     23.6    0.0   23.6    0.0      0.0      0.0   -9.90      0.8      0.8    100      4.6      4.6   100      5.5     5.5     100     18.1    0.46     -9      0      0      0      0    75.0    75.0      0     0.88      4.6      4.6      4.6   100    17.7     7.276    24.8    1.804   36.086      99        0.45    0.000    0.000     264.6    101.2    0.46   101.2     187.5     100.6      92.9      73.6      62.5      45.7    0.000     0.000     0.000     0.000     0.000    0.46     0.00    0.00      0   -9.90   -9.00       27.9       18.1       20.6       22.0       22.0       22.0       22.0       22.0       22.0       22.0       22.0       22.0        0.0        0.0        0.0        0.0        0.0        0.0        0.0        0.0        0.0        0.0        0.0        0.0      0.0       5.2      22.2      27.7      33.2    363.88
    28     3  1997    79     3     259.4     0.0      0.0    0.0    0.0    0.0      0.1      0.0   -9.90      0.8      0.8    100      4.3      4.3   100      5.1     5.1     100     18.4    0.46     -9      0      0      0      0    75.0    75.0      0     0.88      4.3      4.3      4.3   100    17.7     7.432    26.1    1.941   38.817      99        0.48    0.000    0.000     259.4     96.0    0.46    96.0     187.5     100.6      92.2      73.0      62.1      45.7    0.000     0.000     0.000     0.000     0.000    0.46     0.00    0.00      0   -9.90   -9.00       17.3       22.1       22.0       22.0       22.0       22.0       22.0       22.0       22.0       22.0       22.0       22.0        0.0        0.0        0.0        0.0        0.0        0.0        0.0        0.0        0.0        0.0        0.0        0.0      0.0       4.9      22.8      28.0      33.1    363.88
    29     3  1997    80     3     253.3     0.0      0.0    0.0    0.0    0.0      0.1      0.0   -9.90      0.9      0.9    100      5.0      5.0   100      6.0     6.0     100     18.7    0.46     -9      0      0      0      0    75.0    75.0      0     0.88      5.0      5.0      5.0   100    17.7     7.588    27.4    2.081   41.629      99        0.51    0.000    0.000     253.3     89.9    0.46    89.9     187.5     100.6      93.9      74.4      63.1      45.7    0.000     0.000     0.000     0.000     0.000    0.46     0.00    0.00      0   -9.90   -9.00       11.5       21.9       22.0       22.0       22.0       22.0       22.0       22.0       22.0       22.0       22.0       22.0        0.0        0.0        0.0        0.0        0.0        0.0        0.0        0.0        0.0        0.0        0.0        0.0      0.0       5.7      23.4      29.1      34.8    363.88
    30     3  1997    81     3     247.0     0.0      0.0    0.0    0.0    0.0      0.0      0.0   -9.90      1.0      1.0    100      5.3      5.3   100      6.3     6.3     100     18.8    0.46     -9      0     -9      0      0    74.7    74.7      0     0.87      5.3      5.3      5.3   100    17.7     7.742    28.7    2.226   44.516      99        0.53    0.000    0.000     247.0     83.6    0.46    83.6     187.5     100.6      94.7      75.0      63.6      45.7    0.000     0.000     0.000     0.000     0.000    0.46     0.00    0.00      0   -9.90   -9.00        9.5       18.0       21.5       22.0       22.0       22.0       22.0       22.0       22.0       22.0       22.0       22.0        0.0        0.0        0.0        0.0        0.0        0.0        0.0        0.0        0.0        0.0        0.0        0.0      0.0       6.1      23.6      28.9      34.3    363.88
    31     3  1997    82     3     263.2     0.0     23.3    0.0   23.3    0.0      0.0      0.0   -9.90      1.1      1.1    100      6.0      6.0   100      7.1     7.1     100     18.9    0.46     -9      0     -9      0      0    74.3    74.3      0     0.86      6.0      6.0      6.0   100    17.7     7.895    30.1    2.374   47.477      99        0.56    0.000    0.000     263.2     99.8    0.46    99.8     187.5     100.6      96.4      76.3      64.6      45.7    0.000     0.000     0.000     0.000     0.000    0.46     0.00    0.00      0   -9.90   -9.00       26.8       16.9       21.5       22.0       22.0       22.0       22.0       22.0       22.0       22.0       22.0       22.0        0.0        0.0        0.0        0.0        0.0        0.0        0.0        0.0        0.0        0.0        0.0        0.0      0.0       7.0      23.7      29.0      34.2    363.88
     1     4  1997    83     3     256.9     0.0      0.0    0.0    0.0    0.0      0.0      0.0   -9.90      1.0      1.0    100      5.2      5.2   100      6.2     6.2     100     19.2    0.46     -9      0     -9      0      0    74.0    74.0      0     0.86      5.2      5.2      5.2   100    17.7     8.047    31.4    2.526   50.510      99        0.59    0.000    0.000     256.9     93.5    0.46    93.5     187.5     100.6      94.6      74.9      63.6      45.7    0.000     0.000     0.000     0.000     0.000    0.46     0.00    0.00      0   -9.90   -9.00       16.4       21.0       21.5       22.0       22.0       22.0       22.0       22.0       22.0       22.0       22.0       22.0        0.0        0.0        0.0        0.0        0.0        0.0        0.0        0.0        0.0        0.0        0.0        0.0      0.0       6.1      24.5      29.2      33.9    363.88
     2     4  1997    84     3     251.1     0.0      0.0    0.0    0.0    0.0      0.0      0.0   -9.90      1.0      1.0    100      4.9      4.9   100      5.9     5.9     100     17.7    0.46     -9      0     -9      0      0    73.6    73.6      0     0.85      4.9      4.9      4.9   100    17.7     8.197    32.7    2.681   53.613      99        0.61    0.000    0.000     251.1     87.6    0.46    87.6     187.5     100.6      94.0      74.4      63.2      45.7    0.000     0.000     0.000     0.000     0.000    0.46     0.00    0.00      0   -9.90   -9.00       10.7       20.8       21.5       22.0       22.0       22.0       22.0       22.0       22.0       22.0       22.0       22.0        0.0        0.0        0.0        0.0        0.0        0.0        0.0        0.0        0.0        0.0        0.0        0.0      0.0       5.8      21.4      27.3      33.3    363.88
     3     4  1997    85     3     245.3     0.0      0.0    0.0    0.0    0.0      0.0      0.0   -9.90      1.0      1.0    100      4.8      4.8   100      5.7     5.7     100     17.8    0.46     -9      0     -9      0      0    73.2    73.2      0     0.84      4.8      4.8      4.8   100    17.7     8.346    34.0    2.839   56.785      99        0.64    0.000    0.000     245.3     81.9    0.46    81.9     187.5     100.6      93.8      74.3      63.0      45.7    0.000     0.000     0.000     0.000     0.000    0.46     0.00    0.00      0   -9.90   -9.00        9.7       17.0       20.6       22.0       22.0       22.0       22.0       22.0       22.0       22.0       22.0       22.0        0.0        0.0        0.0        0.0        0.0        0.0        0.0        0.0        0.0        0.0        0.0        0.0      0.0       5.7      21.6      27.6      33.5    363.88
     4     4  1997    -9     0     242.4     0.0      0.0    0.0    0.0    0.0      0.0      0.0   -9.90      3.7      2.9     80      0.0      0.0   100      3.7     2.9      80     18.1    0.46     -9     -9     -9      0     -9     0.0     0.0      0    -9.00      0.0      0.0      0.0   100    17.7     8.346    35.0    2.921   58.423      99        0.66    0.000    0.000     242.4     79.0    0.46    79.0     187.5     100.6      93.8      74.9      63.0      45.7    0.000     0.000     0.000     0.000     0.000    0.46     0.00    0.00      0   -9.90   -9.00        6.8       17.0       20.6       22.0       22.0       22.0       22.0       22.0       22.0       22.0       22.0       22.0        0.0        0.0        0.0        0.0        0.0        0.0        0.0        0.0        0.0        0.0        0.0        0.0      0.0       6.1      22.3      27.6      33.0    363.88
