AquaCrop 7.2 (August 2024) - Output created on (date) : 12-12-2024   at (time) : 15:28:39

   Day Month  Year   DAP Stage   WC(1.20)   Rain     Irri   Surf   Infilt   RO    Drain       CR    Zgwt       Ex       E     E/Ex     Trx       Tr  Tr/Trx    ETx      ET  ET/ETx      GD       Z     StExp  StSto  StSen StSalt StWeed   CC      CCw     StTr  Kc(Tr)     Trx       Tr      TrW  Tr/Trx   WP    Biomass     HI    Y(dry)  Y(fresh)  Brelative    WPet      Bin     Bout  WC(1.20) Wr(0.61)     Z       Wr    Wr(SAT)    Wr(FC)   Wr(exp)   Wr(sto)   Wr(sen)   Wr(PWP)    SaltIn    SaltOut   SaltUp   Salt(1.20)  SaltZ     Z       ECe    ECsw   StSalt  Zgwt    ECgw       WC01       WC 2       WC 3       WC 4       WC 5       WC 6       WC 7       WC 8       WC 9       WC10       WC11       WC12      ECe01      ECe 2      ECe 3      ECe 4      ECe 5      ECe 6      ECe 7      ECe 8      ECe 9      ECe10      ECe11      ECe12     Rain       ETo      Tmin      Tavg      Tmax      CO2
                                      mm      mm       mm     mm     mm     mm       mm       mm      m        mm       mm     %        mm       mm    %        mm      mm       %  degC-day     m       %      %      %      %      %      %       %       %       -        mm       mm       mm    %     g/m2    ton/ha      %    ton/ha   ton/ha       %       kg/m3   ton/ha   ton/ha      mm       mm       m       mm        mm        mm        mm        mm        mm         mm    ton/ha    ton/ha    ton/ha    ton/ha    ton/ha     m      dS/m    dS/m      %     m      dS/m       0.05       0.15       0.25       0.35       0.45       0.55       0.65       0.75       0.85       0.95       1.05       1.15       0.05       0.15       0.25       0.35       0.45       0.55       0.65       0.75       0.85       0.95       1.05       1.15       mm        mm     degC      degC      degC       ppm
    22     1  1996     1     1     260.1     0.0      0.0    0.0    0.0    0.0      0.0      0.0   -9.90      5.4      3.9     72      0.0      0.0   100      5.4     3.9      72     15.6    0.30     -9     -9     -9      0     -9     0.0     0.0      0    -9.00      0.0      0.0      0.0   100     0.0     0.000    -9.9    0.000    0.000      -9        0.00    0.000    0.000     260.1    130.2    0.30    62.1     123.0      66.0      60.6      47.9      40.8      30.0    0.000     0.000     0.000     0.000     0.000    0.30     0.00    0.00      0   -9.90   -9.00       18.1       22.0       22.0       22.0       22.0       22.0       22.0       22.0       22.0       22.0       22.0       22.0        0.0        0.0        0.0        0.0        0.0        0.0        0.0        0.0        0.0        0.0        0.0        0.0      0.0       4.9      18.1      22.6      27.0    362.74
    23     1  1996     2     1     257.4     0.0      0.0    0.0    0.0    0.0      0.0      0.0   -9.90      6.3      2.7     42      0.0      0.0   100      6.3     2.7      42     14.3    0.30     -9     -9     -9      0     -9     0.0     0.0      0    -9.00      0.0      0.0      0.0   100     0.0     0.000    -9.9    0.000    0.000      -9        0.00    0.000    0.000     257.4    127.5    0.30    59.4     123.0      66.0      60.6      48.8      40.8      30.0    0.000     0.000     0.000     0.000     0.000    0.30     0.00    0.00      0   -9.90   -9.00       15.4       22.0       22.0       22.0       22.0       22.0       22.0       22.0       22.0       22.0       22.0       22.0        0.0        0.0        0.0        0.0        0.0        0.0        0.0        0.0        0.0        0.0        0.0        0.0      0.0       5.7      16.8      21.3      25.8    362.74
    24     1  1996     3     1     255.5     0.0      0.0    0.0    0.0    0.0      0.0      0.0   -9.90      6.7      2.0     29      0.0      0.0   100      6.7     2.0      29     14.2    0.30     -9     -9     -9      0     -9     0.0     0.0      0    -9.00      0.0      0.0      0.0   100     0.0     0.000    -9.9    0.000    0.000      -9        0.00    0.000    0.000     255.5    125.6    0.30    57.5     123.0      66.0      60.6      49.2      40.8      30.0    0.000     0.000     0.000     0.000     0.000    0.30     0.00    0.00      0   -9.90   -9.00       13.5       22.0       22.0       22.0       22.0       22.0       22.0       22.0       22.0       22.0       22.0       22.0        0.0        0.0        0.0        0.0        0.0        0.0        0.0        0.0        0.0        0.0        0.0        0.0      0.0       6.1      16.8      21.2      25.6    362.74
    25     1  1996     4     1     263.1     0.0     15.3    0.0   15.3    0.0      0.0      0.0   -9.90      7.6      7.6    100      0.0      0.0   100      7.6     7.6     100     15.0    0.30     -9     -9     -9      0     -9     0.0     0.0      0    -9.00      0.0      0.0      0.0   100     0.0     0.000    -9.9    0.000    0.000      -9        0.00    0.000    0.000     263.1    133.2    0.30    65.1     123.0      66.0      60.6      50.1      40.8      30.0    0.000     0.000     0.000     0.000     0.000    0.30     0.00    0.00      0   -9.90   -9.00       21.1       22.0       22.0       22.0       22.0       22.0       22.0       22.0       22.0       22.0       22.0       22.0        0.0        0.0        0.0        0.0        0.0        0.0        0.0        0.0        0.0        0.0        0.0        0.0      0.0       7.0      17.4      22.0      26.6    362.74
    26     1  1996     5     1     258.8     0.0      0.0    0.0    0.0    0.0      0.0      0.0   -9.90      6.7      4.3     64      0.0      0.0   100      6.7     4.3      64     15.8    0.30     -9     -9     -9      0     -9     0.0     0.0      0    -9.00      0.0      0.0      0.0   100     0.0     0.000    -9.9    0.000    0.000      -9        0.00    0.000    0.000     258.8    129.0    0.30    60.8     123.0      66.0      60.6      49.2      40.8      30.0    0.000     0.000     0.000     0.000     0.000    0.30     0.00    0.00      0   -9.90   -9.00       16.8       22.0       22.0       22.0       22.0       22.0       22.0       22.0       22.0       22.0       22.0       22.0        0.0        0.0        0.0        0.0        0.0        0.0        0.0        0.0        0.0        0.0        0.0        0.0      0.0       6.1      18.2      22.8      27.4    362.74
    27     1  1996     6     1     256.5     0.0      0.0    0.0    0.0    0.0      0.0      0.0   -9.90      6.4      2.4     37      0.0      0.0   100      6.4     2.4      37     17.2    0.30     -9     -9     -9      0     -9     0.0     0.0      0    -9.00      0.0      0.0      0.0   100     0.0     0.000    -9.9    0.000    0.000      -9        0.00    0.000    0.000     256.5    126.6    0.30    58.5     123.0      66.0      60.6      48.8      40.8      30.0    0.000     0.000     0.000     0.000     0.000    0.30     0.00    0.00      0   -9.90   -9.00       14.5       22.0       22.0       22.0       22.0       22.0       22.0       22.0       22.0       22.0       22.0       22.0        0.0        0.0        0.0        0.0        0.0        0.0        0.0        0.0        0.0        0.0        0.0        0.0      0.0       5.8      20.5      26.6      32.7    362.74
    28     1  1996     7     1     264.1     0.0     13.9    0.0   13.9    0.0      0.0      0.0   -9.90      6.3      6.3    100      0.0      0.0   100      6.3     6.3     100     16.9    0.30     -9     -9     -9      0     -9     0.0     0.0      0    -9.00      0.0      0.0      0.0   100     0.0     0.000    -9.9    0.000    0.000      -9        0.00    0.000    0.000     264.1    134.2    0.30    66.1     123.0      66.0      60.6      48.7      40.8      30.0    0.000     0.000     0.000     0.000     0.000    0.30     0.00    0.00      0   -9.90   -9.00       22.1       22.0       22.0       22.0       22.0       22.0       22.0       22.0       22.0       22.0       22.0       22.0        0.0        0.0        0.0        0.0        0.0        0.0        0.0        0.0        0.0        0.0        0.0        0.0      0.0       5.7      19.8      25.4      30.9    362.74
    29     1  1996     8     1     259.2     0.0      0.0    0.0    0.0    0.0      0.1      0.0   -9.90      6.7      4.9     73      0.0      0.0   100      6.7     4.9      73     16.9    0.30     -9     -9     -9      0     -9     0.0     0.0      0    -9.00      0.0      0.0      0.0   100     0.0     0.000    -9.9    0.000    0.000      -9        0.00    0.000    0.000     259.2    129.3    0.30    61.1     123.0      66.0      60.6      49.2      40.8      30.0    0.000     0.000     0.000     0.000     0.000    0.30     0.00    0.00      0   -9.90   -9.00       17.1       22.0       22.0       22.0       22.0       22.0       22.0       22.0       22.0       22.0       22.0       22.0        0.0        0.0        0.0        0.0        0.0        0.0        0.0        0.0        0.0        0.0        0.0        0.0      0.0       6.1      21.7      23.9      26.0    362.74
    30     1  1996     9     1     256.1     0.0      0.0    0.0    0.0    0.0      0.0      0.0   -9.90      8.0      3.1     38      0.0      0.0   100      8.0     3.1      38     17.1    0.30     -9     -9     -9      0     -9     0.0     0.0      0    -9.00      0.0      0.0      0.0   100     0.0     0.000    -9.9    0.000    0.000      -9        0.00    0.000    0.000     256.1    126.2    0.30    58.1     123.0      66.0      60.6      50.4      40.8      30.0    0.000     0.000     0.000     0.000     0.000    0.30     0.00    0.00      0   -9.90   -9.00       14.1       22.0       22.0       22.0       22.0       22.0       22.0       22.0       22.0       22.0       22.0       22.0        0.0        0.0        0.0        0.0        0.0        0.0        0.0        0.0        0.0        0.0        0.0        0.0      0.0       7.2      20.1      24.1      28.1    362.74
    31     1  1996    10     2     262.7     0.0     15.9    0.0   15.9    0.0      0.0      0.0   -9.90      9.5      9.2     97      0.1      0.1   100      9.6     9.3      97     17.6    0.31     -9      0      0      0      0     0.8     0.8      0     0.01      0.1      0.1      0.1   100    17.7     0.002    -9.9    0.000    0.000     100        0.00    0.000    0.000     262.7    132.8    0.31    66.0     125.4      67.3      66.9      53.0      44.7      30.6    0.000     0.000     0.000     0.000     0.000    0.31     0.00    0.00      0   -9.90   -9.00       20.7       22.0       22.0       22.0       22.0       22.0       22.0       22.0       22.0       22.0       22.0       22.0        0.0        0.0        0.0        0.0        0.0        0.0        0.0        0.0        0.0        0.0        0.0        0.0      0.0       8.7      21.3      25.9      30.5    362.74
     1     2  1996    11     2     258.1     0.0      0.0    0.0    0.0    0.0      0.0      0.0   -9.90      8.8      4.5     51      0.1      0.1   100      8.9     4.6      51     18.6    0.32      0      0      0      0      0     0.9     0.9      0     0.02      0.1      0.1      0.1   100    17.7     0.005    -9.9    0.000    0.000     100        0.00    0.000    0.000     258.1    128.2    0.32    63.7     129.7      69.6      68.4      54.1      45.7      31.6    0.000     0.000     0.000     0.000     0.000    0.32     0.00    0.00      0   -9.90   -9.00       16.1       22.0       22.0       22.0       22.0       22.0       22.0       22.0       22.0       22.0       22.0       22.0        0.0        0.0        0.0        0.0        0.0        0.0        0.0        0.0        0.0        0.0        0.0        0.0      0.0       8.1      23.3      28.5      33.6    362.74
     2     2  1996    12     2     266.4     0.0     14.8    0.0   14.8    0.0      0.0      0.0   -9.90      6.5      6.5    100      0.1      0.1   100      6.6     6.6     100     18.7    0.33      0      0      0      0      0     1.0     1.0      0     0.02      0.1      0.1      0.1   100    17.7     0.008    -9.9    0.000    0.000     100        0.00    0.000    0.000     266.4    136.5    0.33    74.2     133.8      71.8      67.3      53.3      45.2      32.6    0.000     0.000     0.000     0.000     0.000    0.33     0.00    0.00      0   -9.90   -9.00       24.4       22.0       22.0       22.0       22.0       22.0       22.0       22.0       22.0       22.0       22.0       22.0        0.0        0.0        0.0        0.0        0.0        0.0        0.0        0.0        0.0        0.0        0.0        0.0      0.0       6.0      23.4      28.7      34.0    362.74
     3     2  1996    13     2     259.9     0.0      0.0    0.0    0.0    0.0      1.6      0.0   -9.90      6.3      4.7     74      0.1      0.1   100      6.5     4.8      74     17.6    0.34      0      0      0      0      0     1.1     1.1      0     0.02      0.1      0.1      0.1   100    17.7     0.012    -9.9    0.000    0.000     100        0.00    0.000    0.000     259.9    129.9    0.34    69.6     137.6      73.9      69.1      54.8      46.5      33.6    0.000     0.000     0.000     0.000     0.000    0.34     0.00    0.00      0   -9.90   -9.00       17.4       22.2       22.1       22.1       22.0       22.0       22.0       22.0       22.0       22.0       22.0       22.0        0.0        0.0        0.0        0.0        0.0        0.0        0.0        0.0        0.0        0.0        0.0        0.0      0.0       5.9      21.1      26.8      32.4    362.74
     4     2  1996    14     2     256.9     0.0      0.0    0.0    0.0    0.0      0.5      0.0   -9.90      6.1      2.5     40      0.1      0.1   100      6.2     2.6      42     16.4    0.34      0      0      0      0      0     1.3     1.3      0     0.02      0.1      0.1      0.1   100    17.7     0.016    -9.9    0.000    0.000     100        0.00    0.000    0.000     256.9    127.0    0.34    68.7     141.4      75.9      70.7      56.0      47.5      34.5    0.000     0.000     0.000     0.000     0.000    0.34     0.00    0.00      0   -9.90   -9.00       14.8       22.0       22.0       22.0       22.0       22.0       22.0       22.0       22.0       22.0       22.0       22.0        0.0        0.0        0.0        0.0        0.0        0.0        0.0        0.0        0.0        0.0        0.0        0.0      0.0       5.7      18.8      25.3      31.8    362.74
     5     2  1996    15     2     254.9     0.0      0.0    0.0    0.0    0.0      0.1      0.0   -9.90      6.2      1.7     28      0.2      0.2   100      6.4     1.9      30     16.9    0.35      2      0      0      0      0     1.4     1.4      0     0.03      0.2      0.2      0.2   100    17.7     0.020    -9.9    0.000    0.000     100        0.00    0.000    0.000     254.9    125.0    0.35    68.7     145.0      77.8      72.7      57.6      48.9      35.4    0.000     0.000     0.000     0.000     0.000    0.35     0.00    0.00      0   -9.90   -9.00       12.9       22.0       22.0       22.0       22.0       22.0       22.0       22.0       22.0       22.0       22.0       22.0        0.0        0.0        0.0        0.0        0.0        0.0        0.0        0.0        0.0        0.0        0.0        0.0      0.0       5.8      19.8      25.4      31.0    362.74
     6     2  1996    16     2     253.4     0.0      0.0    0.0    0.0    0.0      0.0      0.0   -9.90      6.5      1.4     21      0.2      0.2   100      6.7     1.5      23     16.0    0.36      6      0      0      0      0     1.6     1.6      0     0.03      0.2      0.2      0.2   100    17.7     0.026    -9.9    0.000    0.000     100        0.00    0.000    0.000     253.4    123.5    0.36    69.1     148.5      79.7      75.0      59.4      50.3      36.2    0.000     0.000     0.000     0.000     0.000    0.36     0.00    0.00      0   -9.90   -9.00       11.4       22.0       22.0       22.0       22.0       22.0       22.0       22.0       22.0       22.0       22.0       22.0        0.0        0.0        0.0        0.0        0.0        0.0        0.0        0.0        0.0        0.0        0.0        0.0      0.0       6.1      18.0      23.8      29.5    362.74
     7     2  1996    17     2     264.5     0.0     17.3    0.0   17.3    0.0      0.0      0.0   -9.90      6.0      6.0    100      0.2      0.2   100      6.2     6.2     100     16.6    0.37      0      0      0      0      0     1.9     1.9      0     0.03      0.2      0.2      0.2   100    17.7     0.032    -9.9    0.000    0.000     100        0.00    0.000    0.000     264.5    134.6    0.37    82.0     152.0      81.5      76.0      60.2      51.1      37.1    0.000     0.000     0.000     0.000     0.000    0.37     0.00    0.00      0   -9.90   -9.00       22.5       22.0       22.0       22.0       22.0       22.0       22.0       22.0       22.0       22.0       22.0       22.0        0.0        0.0        0.0        0.0        0.0        0.0        0.0        0.0        0.0        0.0        0.0        0.0      0.0       5.7      19.3      25.4      31.4    362.74
     8     2  1996    18     2     259.4     0.0      0.0    0.0    0.0    0.0      0.3      0.0   -9.90      5.8      4.6     79      0.2      0.2   100      6.0     4.8      80     15.9    0.38      0      0      0      0      0     2.1     2.1      0     0.04      0.2      0.2      0.2   100    17.7     0.038    -9.9    0.000    0.000      99        0.00    0.000    0.000     259.4    129.5    0.38    78.7     155.3      83.3      77.3      61.3      52.0      37.9    0.000     0.000     0.000     0.000     0.000    0.38     0.00    0.00      0   -9.90   -9.00       17.3       22.0       22.0       22.0       22.0       22.0       22.0       22.0       22.0       22.0       22.0       22.0        0.0        0.0        0.0        0.0        0.0        0.0        0.0        0.0        0.0        0.0        0.0        0.0      0.0       5.5      17.7      24.5      31.3    362.74
     9     2  1996    19     2     256.0     0.0      0.0    0.0    0.0    0.0      0.1      0.0   -9.90      7.2      3.0     41      0.3      0.3   100      7.5     3.3      44     16.6    0.39      1      0      0      0      0     2.4     2.4      0     0.04      0.3      0.3      0.3   100    17.7     0.046    -9.9    0.000    0.000      99        0.00    0.000    0.000     256.0    126.1    0.39    77.1     158.6      85.1      81.3      64.4      54.5      38.7    0.000     0.000     0.000     0.000     0.000    0.39     0.00    0.00      0   -9.90   -9.00       14.0       22.0       22.0       22.0       22.0       22.0       22.0       22.0       22.0       22.0       22.0       22.0        0.0        0.0        0.0        0.0        0.0        0.0        0.0        0.0        0.0        0.0        0.0        0.0      0.0       6.8      19.3      26.5      33.8    362.74
    10     2  1996    20     2     253.5     0.0      0.0    0.0    0.0    0.0      0.0      0.0   -9.90      8.4      2.1     25      0.4      0.4   100      8.8     2.5      29     16.3    0.39      8      0      0      0      0     2.7     2.7      0     0.05      0.4      0.4      0.4   100    17.7     0.054    -9.9    0.000    0.000      99        0.00    0.000    0.000     253.5    123.6    0.39    76.2     161.7      86.8      85.0      67.4      56.9      39.4    0.000     0.000     0.000     0.000     0.000    0.39     0.00    0.00      0   -9.90   -9.00       11.5       22.0       22.0       22.0       22.0       22.0       22.0       22.0       22.0       22.0       22.0       22.0        0.0        0.0        0.0        0.0        0.0        0.0        0.0        0.0        0.0        0.0        0.0        0.0      0.0       8.0      18.6      25.1      31.6    362.74
    11     2  1996    21     2     266.1     0.0     19.3    0.0   19.3    0.0      0.0      0.0   -9.90      6.3      6.3    100      0.3      0.3   100      6.7     6.7     100     15.9    0.40      0      0      0      0      0     3.1     3.1      0     0.06      0.3      0.3      0.3   100    17.7     0.064    -9.9    0.000    0.000      99        0.00    0.000    0.000     266.1    136.2    0.40    90.6     164.9      88.5      83.2      65.9      55.9      40.2    0.000     0.000     0.000     0.000     0.000    0.40     0.00    0.00      0   -9.90   -9.00       24.1       22.0       22.0       22.0       22.0       22.0       22.0       22.0       22.0       22.0       22.0       22.0        0.0        0.0        0.0        0.0        0.0        0.0        0.0        0.0        0.0        0.0        0.0        0.0      0.0       6.1      17.9      24.9      31.8    362.74
    12     2  1996    22     2     259.7     0.0      0.0    0.0    0.0    0.0      1.5      0.0   -9.90      6.2      4.6     74      0.4      0.4   100      6.5     4.9      76     15.9    0.41      0      0      0      0      0     3.5     3.5      0     0.06      0.4      0.4      0.4   100    17.7     0.075    -9.9    0.000    0.000      99        0.00    0.000    0.000     259.7    129.7    0.41    85.6     167.9      90.1      84.5      66.9      56.8      41.0    0.000     0.000     0.000     0.000     0.000    0.41     0.00    0.00      0   -9.90   -9.00       17.2       22.2       22.1       22.1       22.0       22.0       22.0       22.0       22.0       22.0       22.0       22.0        0.0        0.0        0.0        0.0        0.0        0.0        0.0        0.0        0.0        0.0        0.0        0.0      0.0       6.0      17.7      25.2      32.8    362.74
    13     2  1996    23     2     256.2     0.0      0.0    0.0    0.0    0.0      0.4      0.0   -9.90      6.8      2.6     39      0.5      0.5   100      7.3     3.1      43     18.0    0.42      0      0      0      0      0     4.0     4.0      0     0.07      0.5      0.5      0.5   100    17.7     0.088    -9.9    0.000    0.000      99        0.00    0.000    0.000     256.2    126.3    0.42    83.9     170.9      91.7      87.3      69.1      58.5      41.7    0.000     0.000     0.000     0.000     0.000    0.42     0.00    0.00      0   -9.90   -9.00       14.1       22.0       22.0       22.0       22.0       22.0       22.0       22.0       22.0       22.0       22.0       22.0        0.0        0.0        0.0        0.0        0.0        0.0        0.0        0.0        0.0        0.0        0.0        0.0      0.0       6.6      22.0      27.9      33.9    362.74
    14     2  1996    24     2     253.8     0.0      0.0    0.0    0.0    0.0      0.1      0.0   -9.90      7.0      1.7     25      0.6      0.6   100      7.6     2.3      30     16.9    0.42      4      0      0      0      0     4.6     4.6      0     0.08      0.6      0.6      0.6   100    17.7     0.102    -9.9    0.000    0.000      98        0.00    0.000    0.000     253.8    124.0    0.42    83.1     173.9      93.3      89.3      70.7      59.9      42.4    0.000     0.000     0.000     0.000     0.000    0.42     0.00    0.00      0   -9.90   -9.00       11.8       22.0       22.0       22.0       22.0       22.0       22.0       22.0       22.0       22.0       22.0       22.0        0.0        0.0        0.0        0.0        0.0        0.0        0.0        0.0        0.0        0.0        0.0        0.0      0.0       6.9      19.9      26.5      33.1    362.74
    15     2  1996    25     2     252.0     0.0      0.0    0.0    0.0    0.0      0.0      0.0   -9.90      7.0      1.2     17      0.6      0.6   100      7.7     1.9      24     15.9    0.43      7      0      0      0      0     5.1     5.1      0     0.09      0.6      0.6      0.6   100    17.7     0.118    -9.9    0.000    0.000      98        0.00    0.000    0.000     252.0    122.1    0.43    82.8     176.8      94.9      91.0      72.1      61.0      43.1    0.000     0.000     0.000     0.000     0.000    0.43     0.00    0.00      0   -9.90   -9.00       10.0       22.0       22.0       22.0       22.0       22.0       22.0       22.0       22.0       22.0       22.0       22.0        0.0        0.0        0.0        0.0        0.0        0.0        0.0        0.0        0.0        0.0        0.0        0.0      0.0       7.0      17.9      25.6      33.2    362.74
    16     2  1996    26     2     264.5     0.0     19.7    0.0   19.7    0.0      0.0      0.0   -9.90      6.5      6.5    100      0.7      0.7   100      7.2     7.2     100     17.4    0.44      0      0      0      0      0     5.9     5.9      0     0.10      0.7      0.7      0.7   100    17.7     0.136    -9.9    0.000    0.000      98        0.00    0.000    0.000     264.5    134.6    0.44    96.9     179.6      96.4      91.6      72.5      61.5      43.8    0.000     0.000     0.000     0.000     0.000    0.44     0.00    0.00      0   -9.90   -9.00       22.5       22.0       22.0       22.0       22.0       22.0       22.0       22.0       22.0       22.0       22.0       22.0        0.0        0.0        0.0        0.0        0.0        0.0        0.0        0.0        0.0        0.0        0.0        0.0      0.0       6.6      20.7      27.9      35.0    362.74
    17     2  1996    27     2     258.8     0.0      0.0    0.0    0.0    0.0      0.3      0.0   -9.90      6.4      4.6     72      0.8      0.8   100      7.1     5.4      75     17.9    0.44      0      0      0      0      0     6.7     6.7      0     0.12      0.8      0.8      0.8   100    17.7     0.157    -9.9    0.000    0.000      98        0.00    0.000    0.000     258.8    128.9    0.44    92.7     182.4      97.9      93.0      73.6      62.4      44.5    0.000     0.000     0.000     0.000     0.000    0.44     0.00    0.00      0   -9.90   -9.00       16.7       22.0       22.0       22.0       22.0       22.0       22.0       22.0       22.0       22.0       22.0       22.0        0.0        0.0        0.0        0.0        0.0        0.0        0.0        0.0        0.0        0.0        0.0        0.0      0.0       6.5      21.7      28.0      34.3    362.74
    18     2  1996    28     2     255.8     0.0      0.0    0.0    0.0    0.0      0.1      0.0   -9.90      5.8      2.1     37      0.8      0.8   100      6.6     2.9      44     16.6    0.45      0      0      0      0      0     7.6     7.6      0     0.13      0.8      0.8      0.8   100    17.7     0.180    -9.9    0.000    0.000      98        0.00    0.000    0.000     255.8    125.9    0.45    91.1     185.2      99.4      93.4      74.0      62.7      45.2    0.000     0.000     0.000     0.000     0.000    0.45     0.00    0.00      0   -9.90   -9.00       13.8       22.0       22.0       22.0       22.0       22.0       22.0       22.0       22.0       22.0       22.0       22.0        0.0        0.0        0.0        0.0        0.0        0.0        0.0        0.0        0.0        0.0        0.0        0.0      0.0       6.0      19.3      27.1      35.0    362.74
    19     2  1996    29     2     253.4     0.0      0.0    0.0    0.0    0.0      0.0      0.0   -9.90      6.1      1.4     24      1.0      1.0   100      7.0     2.4      34     16.4    0.46      2      0      0      0      0     8.6     8.6      0     0.15      1.0      1.0      1.0   100    17.7     0.206    -9.9    0.000    0.000      97        0.00    0.000    0.000     253.4    123.5    0.46    90.2     188.0     100.9      95.6      75.7      64.1      45.8    0.000     0.000     0.000     0.000     0.000    0.46     0.00    0.00      0   -9.90   -9.00       11.4       22.0       22.0       22.0       22.0       22.0       22.0       22.0       22.0       22.0       22.0       22.0        0.0        0.0        0.0        0.0        0.0        0.0        0.0        0.0        0.0        0.0        0.0        0.0      0.0       6.4      18.7      27.2      35.7    362.74
    20     2  1996    30     2     251.2     0.0      0.0    0.0    0.0    0.0      0.0      0.0   -9.90      6.1      1.0     16      1.1      1.1   100      7.2     2.1      29     16.6    0.47      6      0      0      0      0     9.8     9.8      0     0.17      1.1      1.1      1.1   100    17.7     0.235    -9.9    0.000    0.000      97        0.00    0.000    0.000     251.2    121.4    0.47    89.5     190.7     102.3      97.3      77.1      65.3      46.5    0.000     0.000     0.000     0.000     0.000    0.47     0.00    0.00      0   -9.90   -9.00        9.6       21.7       22.0       22.0       22.0       22.0       22.0       22.0       22.0       22.0       22.0       22.0        0.0        0.0        0.0        0.0        0.0        0.0        0.0        0.0        0.0        0.0        0.0        0.0      0.0       6.6      19.2      25.1      31.0    362.74
    21     2  1996    31     2     249.1     0.0      0.0    0.0    0.0    0.0      0.0      0.0   -9.90      6.7      0.8     12      1.4      1.4   100      8.1     2.2      27     16.6    0.47     12      0      0      0      0    10.9    10.9      0     0.19      1.4      1.4      1.4   100    17.7     0.268    -9.9    0.000    0.000      97        0.00    0.000    0.000     249.1    119.2    0.47    88.8     193.3     103.7     100.4      79.5      67.3      47.2    0.000     0.000     0.000     0.000     0.000    0.47     0.00    0.00      0   -9.90   -9.00        8.8       20.3       22.0       22.0       22.0       22.0       22.0       22.0       22.0       22.0       22.0       22.0        0.0        0.0        0.0        0.0        0.0        0.0        0.0        0.0        0.0        0.0        0.0        0.0      0.0       7.4      19.2      25.6      32.1    362.74
    22     2  1996    32     2     262.4     0.0     23.0    0.0   23.0    0.0      0.0      0.0   -9.90      7.9      7.9     99      1.9      1.9   100      9.8     9.7     100     16.8    0.48      0      0      0      0      0    12.5    12.5      0     0.21      1.9      1.9      1.9   100    17.7     0.305    -9.9    0.000    0.000      97        0.00    0.000    0.000     262.4    132.5    0.48   103.5     196.0     105.1     105.1      83.2      70.2      47.8    0.000     0.000     0.000     0.000     0.000    0.48     0.00    0.00      0   -9.90   -9.00       22.1       20.3       22.0       22.0       22.0       22.0       22.0       22.0       22.0       22.0       22.0       22.0        0.0        0.0        0.0        0.0        0.0        0.0        0.0        0.0        0.0        0.0        0.0        0.0      0.0       9.0      19.5      24.8      30.1    362.74
    23     2  1996    33     2     256.4     0.0      0.0    0.0    0.0    0.0      0.0      0.0   -9.90      7.6      3.8     50      2.1      2.1   100      9.7     5.9      61     17.0    0.48      0      0      0      0      0    14.2    14.2      0     0.24      2.1      2.1      2.1   100    17.7     0.347    -9.9    0.000    0.000      96        0.00    0.000    0.000     256.4    126.5    0.48    99.0     198.6     106.5     106.4      84.3      71.1      48.4    0.000     0.000     0.000     0.000     0.000    0.48     0.00    0.00      0   -9.90   -9.00       16.1       20.4       22.0       22.0       22.0       22.0       22.0       22.0       22.0       22.0       22.0       22.0        0.0        0.0        0.0        0.0        0.0        0.0        0.0        0.0        0.0        0.0        0.0        0.0      0.0       8.9      20.0      26.5      33.0    362.74
    24     2  1996    34     2     252.7     0.0      0.0    0.0    0.0    0.0      0.0      0.0   -9.90      6.6      1.6     24      2.1      2.1   100      8.7     3.7      42     17.6    0.49      5      0      0      0      0    16.1    16.1      0     0.26      2.1      2.1      2.1   100    17.7     0.394    -9.9    0.000    0.000      96        0.00    0.000    0.000     252.7    122.9    0.49    96.7     201.1     107.9     105.7      83.7      70.7      49.1    0.000     0.000     0.000     0.000     0.000    0.49     0.00    0.00      0   -9.90   -9.00       12.4       20.4       22.0       22.0       22.0       22.0       22.0       22.0       22.0       22.0       22.0       22.0        0.0        0.0        0.0        0.0        0.0        0.0        0.0        0.0        0.0        0.0        0.0        0.0      0.0       8.0      21.3      27.9      34.4    362.74
    25     2  1996    35     2     265.5     0.0     19.9    0.0   19.9    0.0      0.0      0.0   -9.90      5.2      5.2    100      2.0      2.0   100      7.2     7.2     100     17.9    0.50      0      0      0      0      0    18.3    18.3      0     0.30      2.0      2.0      2.0   100    17.7     0.446    -9.9    0.000    0.000      96        0.00    0.000    0.000     265.5    135.6    0.50   110.8     203.7     109.3     104.0      82.4      69.8      49.7    0.000     0.000     0.000     0.000     0.000    0.50     0.00    0.00      0   -9.90   -9.00       25.1       20.4       22.0       22.0       22.0       22.0       22.0       22.0       22.0       22.0       22.0       22.0        0.0        0.0        0.0        0.0        0.0        0.0        0.0        0.0        0.0        0.0        0.0        0.0      0.0       6.6      21.8      27.9      34.0    362.74
    26     2  1996    36     2     258.4     0.0      0.0    0.0    0.0    0.0      0.9      0.0   -9.90      4.6      4.1     88      2.1      2.1   100      6.7     6.1      92     17.2    0.50      0      0      0      0      0    20.8    20.8      0     0.33      2.1      2.1      2.1   100    17.7     0.505    -9.9    0.000    0.000      96        0.00    0.000    0.000     258.4    128.5    0.50   105.0     206.2     110.6     104.3      82.6      70.0      50.3    0.000     0.000     0.000     0.000     0.000    0.50     0.00    0.00      0   -9.90   -9.00       16.1       22.1       22.1       22.0       22.0       22.0       22.0       22.0       22.0       22.0       22.0       22.0        0.0        0.0        0.0        0.0        0.0        0.0        0.0        0.0        0.0        0.0        0.0        0.0      0.0       6.2      20.5      27.7      34.9    362.74
    27     2  1996    37     2     254.3     0.0      0.0    0.0    0.0    0.0      0.3      0.0   -9.90      4.1      1.6     40      2.2      2.2   100      6.3     3.8      61     18.1    0.51      0      0      0      0      0    23.7    23.7      0     0.37      2.2      2.2      2.2   100    17.7     0.571    -9.9    0.000    0.000      95        0.00    0.000    0.000     254.3    124.4    0.51   102.3     208.7     112.0     104.7      82.9      70.4      50.9    0.000     0.000     0.000     0.000     0.000    0.51     0.00    0.00      0   -9.90   -9.00       12.3       22.0       22.0       22.0       22.0       22.0       22.0       22.0       22.0       22.0       22.0       22.0        0.0        0.0        0.0        0.0        0.0        0.0        0.0        0.0        0.0        0.0        0.0        0.0      0.0       5.8      22.2      28.5      34.9    362.74
    28     2  1996    38     2     251.1     0.0      0.0    0.0    0.0    0.0      0.0      0.0   -9.90      3.8      0.8     22      2.4      2.4   100      6.2     3.2      52     16.9    0.51      2      0      0      0      0    26.9    26.9      0     0.42      2.4      2.4      2.4   100    17.7     0.645    -9.9    0.000    0.000      95        0.00    0.000    0.000     251.1    121.2    0.51   100.3     211.1     113.3     105.7      83.7      71.1      51.5    0.000     0.000     0.000     0.000     0.000    0.51     0.00    0.00      0   -9.90   -9.00        9.1       22.0       22.0       22.0       22.0       22.0       22.0       22.0       22.0       22.0       22.0       22.0        0.0        0.0        0.0        0.0        0.0        0.0        0.0        0.0        0.0        0.0        0.0        0.0      0.0       5.7      19.7      26.5      33.3    362.74
    29     2  1996    39     2     247.7     0.0      0.0    0.0    0.0    0.0      0.0      0.0   -9.90      3.9      0.5     12      2.9      2.9   100      6.8     3.4      50     17.2    0.52      6      0      0      0      0    30.4    30.4      0     0.46      2.9      2.9      2.9   100    17.7     0.727    -9.9    0.000    0.000      95        0.00    0.000    0.000     247.7    117.8    0.52    98.2     213.6     114.6     108.3      85.8      72.7      52.1    0.000     0.000     0.000     0.000     0.000    0.52     0.00    0.00      0   -9.90   -9.00        8.6       19.1       22.0       22.0       22.0       22.0       22.0       22.0       22.0       22.0       22.0       22.0        0.0        0.0        0.0        0.0        0.0        0.0        0.0        0.0        0.0        0.0        0.0        0.0      0.0       6.3      20.5      26.6      32.8    362.74
     1     3  1996    40     2     244.4     0.0      0.0    0.0    0.0    0.0      0.0      0.0   -9.90      3.3      0.3      9      3.0      3.0   100      6.3     3.2      52     17.8    0.53      9      0      0      0      0    34.2    34.2      0     0.51      3.0      3.0      3.0   100    17.7     0.816    -9.9    0.000    0.000      95        0.00    0.000    0.000     244.4    114.5    0.53    96.3     216.0     115.9     108.4      85.8      72.8      52.7    0.000     0.000     0.000     0.000     0.000    0.53     0.00    0.00      0   -9.90   -9.00        8.3       16.1       22.0       22.0       22.0       22.0       22.0       22.0       22.0       22.0       22.0       22.0        0.0        0.0        0.0        0.0        0.0        0.0        0.0        0.0        0.0        0.0        0.0        0.0      0.0       5.8      21.5      28.4      35.2    362.74
     2     3  1996    41     2     264.0     0.0     25.9    0.0   25.9    0.0      0.0      0.0   -9.90      3.0      3.0    100      3.3      3.3   100      6.2     6.2     100     17.7    0.53      0      0      0      0      0    38.9    38.9      0     0.56      3.3      3.3      3.3   100    17.7     0.916    -9.9    0.000    0.000      95        0.00    0.000    0.000     264.0    134.1    0.53   117.2     218.4     117.2     109.6      86.8      73.6      53.3    0.000     0.000     0.000     0.000     0.000    0.53     0.00    0.00      0   -9.90   -9.00       27.9       16.1       22.0       22.0       22.0       22.0       22.0       22.0       22.0       22.0       22.0       22.0        0.0        0.0        0.0        0.0        0.0        0.0        0.0        0.0        0.0        0.0        0.0        0.0      0.0       5.8      21.4      27.6      33.8    362.74
     3     3  1996    42     2     257.9     0.0      0.0    0.0    0.0    0.0      0.0      0.0   -9.90      2.6      2.6    100      3.5      3.5   100      6.1     6.1     100     18.0    0.54      0      0      0      0      0    43.3    43.3      0     0.61      3.5      3.5      3.5   100    17.7     1.024    -9.9    0.000    0.000      95        0.00    0.000    0.000     257.9    128.0    0.54   112.4     220.8     118.5     110.5      87.5      74.3      53.8    0.000     0.000     0.000     0.000     0.000    0.54     0.00    0.00      0   -9.90   -9.00       16.3       21.6       22.0       22.0       22.0       22.0       22.0       22.0       22.0       22.0       22.0       22.0        0.0        0.0        0.0        0.0        0.0        0.0        0.0        0.0        0.0        0.0        0.0        0.0      0.0       5.7      22.0      28.1      34.3    362.74
     4     3  1996    43     2     252.1     0.0      0.0    0.0    0.0    0.0      0.0      0.0   -9.90      2.3      2.2     95      3.6      3.6   100      5.9     5.8      98     18.4    0.54      0      0      0      0      0    47.2    47.2      0     0.65      3.6      3.6      3.6   100    17.7     1.139    -9.9    0.000    0.000      95        0.00    0.000    0.000     252.1    122.3    0.54   107.9     223.1     119.7     111.2      88.1      74.8      54.4    0.000     0.000     0.000     0.000     0.000    0.54     0.00    0.00      0   -9.90   -9.00       10.5       21.6       22.0       22.0       22.0       22.0       22.0       22.0       22.0       22.0       22.0       22.0        0.0        0.0        0.0        0.0        0.0        0.0        0.0        0.0        0.0        0.0        0.0        0.0      0.0       5.5      22.8      29.5      36.3    362.74
     5     3  1996    44     2     247.5     0.0      0.0    0.0    0.0    0.0      0.0      0.0   -9.90      2.2      0.7     33      4.0      4.0   100      6.2     4.7      76     19.2    0.55      3      0      0      0      0    50.5    50.5      0     0.68      4.0      4.0      4.0   100    17.7     1.260    -9.9    0.000    0.000      95        0.00    0.000    0.000     247.5    117.6    0.55   104.4     225.4     121.0     113.0      89.5      75.9      55.0    0.000     0.000     0.000     0.000     0.000    0.55     0.00    0.00      0   -9.90   -9.00        9.8       17.7       22.0       22.0       22.0       22.0       22.0       22.0       22.0       22.0       22.0       22.0        0.0        0.0        0.0        0.0        0.0        0.0        0.0        0.0        0.0        0.0        0.0        0.0      0.0       5.8      24.5      30.4      36.4    362.74
     6     3  1996    45     2     243.0     0.0      0.0    0.0    0.0    0.0      0.0      0.0   -9.90      2.1      0.4     18      4.1      4.1   100      6.2     4.5      73     19.0    0.56      8      0      0      0      0    53.2    53.2      0     0.71      4.1      4.1      4.1   100    17.7     1.386    -9.9    0.000    0.000      95        0.00    0.000    0.000     243.0    113.1    0.56   101.2     227.8     122.2     114.2      90.5      76.8      55.5    0.000     0.000     0.000     0.000     0.000    0.56     0.00    0.00      0   -9.90   -9.00        9.4       13.6       22.0       22.0       22.0       22.0       22.0       22.0       22.0       22.0       22.0       22.0        0.0        0.0        0.0        0.0        0.0        0.0        0.0        0.0        0.0        0.0        0.0        0.0      0.0       5.8      24.0      30.1      36.1    362.74
     7     3  1996    46     2     263.9     0.0     27.2    0.0   27.2    0.0      0.0      0.0   -9.90      1.9      1.9    100      4.4      4.4   100      6.3     6.3     100     18.6    0.56      0      0      0      0      0    55.9    55.9      0     0.74      4.4      4.4      4.4   100    17.7     1.517    -9.9    0.000    0.000      96        0.00    0.000    0.000     263.9    134.0    0.56   123.3     230.0     123.4     115.6      91.6      77.7      56.1    0.000     0.000     0.000     0.000     0.000    0.56     0.00    0.00      0   -9.90   -9.00       30.3       13.6       22.0       22.0       22.0       22.0       22.0       22.0       22.0       22.0       22.0       22.0        0.0        0.0        0.0        0.0        0.0        0.0        0.0        0.0        0.0        0.0        0.0        0.0      0.0       5.9      23.1      29.2      35.4    362.74
     8     3  1996    47     2     259.4     1.8      0.0    0.0    1.8    0.0      0.0      0.0   -9.90      1.8      1.8    100      4.5      4.5   100      6.3     6.3     100     18.6    0.57      0      0      0      0      0    58.2    58.2      0     0.76      4.5      4.5      4.5   100    17.7     1.651    -9.9    0.000    0.000      96        0.00    0.000    0.000     259.4    129.5    0.57   120.1     232.3     124.7     116.7      92.5      78.4      56.7    0.000     0.000     0.000     0.000     0.000    0.57     0.00    0.00      0   -9.90   -9.00       17.7       21.7       22.0       22.0       22.0       22.0       22.0       22.0       22.0       22.0       22.0       22.0        0.0        0.0        0.0        0.0        0.0        0.0        0.0        0.0        0.0        0.0        0.0        0.0      1.8       5.9      23.3      30.0      36.7    362.74
     9     3  1996    48     2     253.5     0.0      0.0    0.0    0.0    0.0      0.0      0.0   -9.90      1.9      0.8     45      5.1      5.1   100      6.9     5.9      85     19.1    0.57      0      0      0      0      0    60.3    60.3      0     0.78      5.1      5.1      5.1   100    17.7     1.788    -9.9    0.000    0.000      96        0.00    0.000    0.000     253.5    123.6    0.57   115.4     234.6     125.9     119.5      94.6      80.2      57.2    0.000     0.000     0.000     0.000     0.000    0.57     0.00    0.00      0   -9.90   -9.00       11.9       21.7       22.0       22.0       22.0       22.0       22.0       22.0       22.0       22.0       22.0       22.0        0.0        0.0        0.0        0.0        0.0        0.0        0.0        0.0        0.0        0.0        0.0        0.0      0.0       6.5      24.2      29.8      35.3    362.74
    10     3  1996    49     2     248.1     0.0      0.0    0.0    0.0    0.0      0.0      0.0   -9.90      1.7      0.3     18      5.1      5.1   100      6.8     5.4      79     18.1    0.58      3      0      0      0      0    62.0    62.0      0     0.79      5.1      5.1      5.1   100    17.7     1.928    -9.9    0.000    0.000      96        0.00    0.000    0.000     248.1    118.2    0.58   111.2     236.8     127.1     120.4      95.4      80.8      57.8    0.000     0.000     0.000     0.000     0.000    0.58     0.00    0.00      0   -9.90   -9.00        8.9       19.3       22.0       22.0       22.0       22.0       22.0       22.0       22.0       22.0       22.0       22.0        0.0        0.0        0.0        0.0        0.0        0.0        0.0        0.0        0.0        0.0        0.0        0.0      0.0       6.4      22.1      29.5      36.9    362.74
    11     3  1996    50     2     242.9     0.1      0.0    0.0    0.1    0.0      0.0      0.0   -9.90      1.6      0.4     23      4.9      4.9   100      6.5     5.3      81     18.6    0.58      7      0      0      0      0    63.5    63.5      0     0.80      4.9      4.9      4.9   100    17.7     2.070    -9.9    0.000    0.000      96        0.00    0.000    0.000     242.9    113.0    0.58   107.2     239.0     128.3     120.7      95.6      81.1      58.3    0.000     0.000     0.000     0.000     0.000    0.58     0.00    0.00      0   -9.90   -9.00        8.6       15.1       21.2       22.0       22.0       22.0       22.0       22.0       22.0       22.0       22.0       22.0        0.0        0.0        0.0        0.0        0.0        0.0        0.0        0.0        0.0        0.0        0.0        0.0      0.1       6.1      23.3      30.5      37.8    362.74
    12     3  1996    51     2     263.8     0.0     27.6    0.0   27.6    0.0      0.0      0.0   -9.90      1.5      1.5    100      5.1      5.1   100      6.7     6.7     100     19.1    0.59      0      0      0      0      0    64.9    64.9      0     0.82      5.1      5.1      5.1   100    17.7     2.214    -9.9    0.000    0.000      96        0.00    0.000    0.000     263.8    133.9    0.59   129.3     241.3     129.5     122.3      96.9      82.1      58.8    0.000     0.000     0.000     0.000     0.000    0.59     0.00    0.00      0   -9.90   -9.00       29.6       15.0       21.2       22.0       22.0       22.0       22.0       22.0       22.0       22.0       22.0       22.0        0.0        0.0        0.0        0.0        0.0        0.0        0.0        0.0        0.0        0.0        0.0        0.0      0.0       6.3      24.2      30.9      37.5    362.74
    13     3  1996    52     2     257.7     0.0      0.0    0.0    0.0    0.0      0.0      0.0   -9.90      1.4      1.4    100      4.8      4.8   100      6.1     6.1     100     18.6    0.59      0      0      0      0      0    66.1    66.1      0     0.83      4.8      4.8      4.8   100    17.7     2.361    -9.9    0.000    0.000      97        0.00    0.000    0.000     257.7    127.8    0.59   124.3     243.4     130.6     122.0      96.6      82.0      59.4    0.000     0.000     0.000     0.000     0.000    0.59     0.00    0.00      0   -9.90   -9.00       16.3       22.0       21.4       22.0       22.0       22.0       22.0       22.0       22.0       22.0       22.0       22.0        0.0        0.0        0.0        0.0        0.0        0.0        0.0        0.0        0.0        0.0        0.0        0.0      0.0       5.8      23.3      30.0      36.7    362.74
    14     3  1996    53     2     257.2     5.6      0.0    0.0    5.6    0.0      0.0      0.0   -9.90      1.3      1.3    100      4.8      4.8   100      6.1     6.1     100     18.7    0.60      0      0      0      0      0    67.2    67.2      0     0.83      4.8      4.8      4.8   100    17.7     2.508    -9.9    0.000    0.000      97        0.00    0.000    0.000     257.2    127.3    0.60   125.0     245.6     131.8     123.1      97.5      82.7      59.9    0.000     0.000     0.000     0.000     0.000    0.60     0.00    0.00      0   -9.90   -9.00       15.8       22.0       21.4       22.0       22.0       22.0       22.0       22.0       22.0       22.0       22.0       22.0        0.0        0.0        0.0        0.0        0.0        0.0        0.0        0.0        0.0        0.0        0.0        0.0      5.6       5.8      23.4      29.1      34.8    362.74
    15     3  1996    54     2     250.7     0.0      0.0    0.0    0.0    0.0      0.0      0.0   -9.90      1.3      1.3    100      5.2      5.2   100      6.5     6.5     100     18.4    0.60      0      0      0      0      0    68.1    68.1      0     0.84      5.2      5.2      5.2   100    17.7     2.657    -9.9    0.000    0.000      97        0.00    0.000    0.000     250.7    120.8    0.60   119.6     247.8     133.0     125.2      99.1      84.1      60.4    0.000     0.000     0.000     0.000     0.000    0.60     0.00    0.00      0   -9.90   -9.00        9.8       21.4       21.4       22.0       22.0       22.0       22.0       22.0       22.0       22.0       22.0       22.0        0.0        0.0        0.0        0.0        0.0        0.0        0.0        0.0        0.0        0.0        0.0        0.0      0.0       6.1      22.9      27.6      32.4    362.74
    16     3  1996    55     2     245.4     0.1      0.0    0.0    0.1    0.0      0.0      0.0   -9.90      1.2      0.4     34      4.9      4.9   100      6.2     5.4      87     18.2    0.61      3      0      0      0      0    68.9    68.9      0     0.85      4.9      4.9      4.9   100    17.7     2.808    -9.9    0.000    0.000      97        0.00    0.000    0.000     245.4    115.5    0.61   115.5     249.9     134.1     125.4      99.3      84.3      61.0    0.000     0.000     0.000     0.000     0.000    0.61     0.00    0.00      0   -9.90   -9.00        9.5       17.2       20.7       22.0       22.0       22.0       22.0       22.0       22.0       22.0       22.0       22.0        0.0        0.0        0.0        0.0        0.0        0.0        0.0        0.0        0.0        0.0        0.0        0.0      0.1       5.8      22.5      26.6      30.8    362.74
    17     3  1996    56     2     240.5     0.3      0.0    0.0    0.3    0.0      0.0      0.0   -9.90      1.1      0.4     38      4.8      4.8   100      6.0     5.2      88     19.1    0.61      8      0      0      0      0    69.6    69.6      0     0.85      4.8      4.8      4.8   100    17.7     2.959    -9.9    0.000    0.000      97        0.00    0.000    0.000     240.5    110.6    0.61   110.6     249.9     134.1     124.8      98.9      83.9      61.0    0.000     0.000     0.000     0.000     0.000    0.61     0.00    0.00      0   -9.90   -9.00        9.4       13.0       20.1       22.0       22.0       22.0       22.0       22.0       22.0       22.0       22.0       22.0        0.0        0.0        0.0        0.0        0.0        0.0        0.0        0.0        0.0        0.0        0.0        0.0      0.3       5.6      24.2      27.5      30.9    362.74
    18     3  1996    57     2     263.9     0.0     29.5    0.0   29.5    0.0      0.0      0.0   -9.90      1.1      1.1    100      5.0      5.0   100      6.1     6.1     100     18.4    0.61      0      0      0      0      0    70.3    70.3      0     0.86      5.0      5.0      5.0   100    17.7     3.111    -9.9    0.000    0.000      97        0.00    0.000    0.000     263.9    134.0    0.61   134.0     249.9     134.1     125.2      99.2      84.2      61.0    0.000     0.000     0.000     0.000     0.000    0.61     0.00    0.00      0   -9.90   -9.00       32.8       13.0       20.1       22.0       22.0       22.0       22.0       22.0       22.0       22.0       22.0       22.0        0.0        0.0        0.0        0.0        0.0        0.0        0.0        0.0        0.0        0.0        0.0        0.0      0.0       5.8      22.8      26.4      29.9    362.74
    19     3  1996    58     2     257.8     0.2      0.0    0.0    0.2    0.0      0.0      0.0   -9.90      1.2      1.1     93      5.1      5.1   100      6.3     6.2      99     18.7    0.61      0      0      0      0      0    70.8    70.8      0     0.86      5.1      5.1      5.1   100    17.7     3.264    -9.9    0.000    0.000      97        0.00    0.000    0.000     257.8    127.9    0.61   127.9     249.9     134.1     125.7      99.6      84.5      61.0    0.000     0.000     0.000     0.000     0.000    0.61     0.00    0.00      0   -9.90   -9.00       16.4       22.1       21.4       22.0       22.0       22.0       22.0       22.0       22.0       22.0       22.0       22.0        0.0        0.0        0.0        0.0        0.0        0.0        0.0        0.0        0.0        0.0        0.0        0.0      0.2       6.0      23.4      26.5      29.6    362.74
    20     3  1996    59     3     252.3     0.7      0.0    0.0    0.7    0.0      0.0      0.0   -9.90      1.1      1.1     98      5.1      5.1   100      6.2     6.2     100     17.9    0.61      0      0      0      0      0    71.3    71.3      0     0.87      5.1      5.1      5.1   100    17.7     3.418    -9.9    0.000    0.000      97        0.00    0.000    0.000     252.3    122.5    0.61   122.5     249.9     134.1     125.5      99.4      84.3      61.0    0.000     0.000     0.000     0.000     0.000    0.61     0.00    0.00      0   -9.90   -9.00       11.0       21.9       21.5       22.0       22.0       22.0       22.0       22.0       22.0       22.0       22.0       22.0        0.0        0.0        0.0        0.0        0.0        0.0        0.0        0.0        0.0        0.0        0.0        0.0      0.7       5.9      21.9      25.5      29.1    362.74
    21     3  1996    60     3     247.0     0.5      0.0    0.0    0.5    0.0      0.0      0.0   -9.90      1.1      0.7     67      5.2      5.2   100      6.3     5.9      94     18.4    0.61      2      0      0      0      0    71.8    71.8      0     0.87      5.2      5.2      5.2   100    17.7     3.572    -9.9    0.000    0.000      98        0.00    0.000    0.000     247.0    117.1    0.61   117.1     249.9     134.1     125.6      99.5      84.4      61.0    0.000     0.000     0.000     0.000     0.000    0.61     0.00    0.00      0   -9.90   -9.00        9.2       18.3       21.5       22.0       22.0       22.0       22.0       22.0       22.0       22.0       22.0       22.0        0.0        0.0        0.0        0.0        0.0        0.0        0.0        0.0        0.0        0.0        0.0        0.0      0.5       5.9      22.7      26.4      30.2    362.74
    22     3  1996    61     3     243.0     0.5      0.0    0.0    0.5    0.0      0.0      0.0   -9.90      0.8      0.6     67      3.9      3.9   100      4.8     4.5      94     18.4    0.61      3      0      0      0      0    72.2    72.2      0     0.87      3.9      3.9      3.9   100    17.7     3.727    -9.9    0.000    0.000      98        0.00    0.000    0.000     243.0    113.1    0.61   113.1     249.9     134.1     121.8      96.5      82.1      61.0    0.000     0.000     0.000     0.000     0.000    0.61     0.00    0.00      0   -9.90   -9.00        9.1       14.4       21.5       22.0       22.0       22.0       22.0       22.0       22.0       22.0       22.0       22.0        0.0        0.0        0.0        0.0        0.0        0.0        0.0        0.0        0.0        0.0        0.0        0.0      0.5       4.5      22.9      26.5      30.2    362.74
    23     3  1996    62     3     237.4     0.6      0.0    0.0    0.6    0.0      0.0      0.0   -9.90      1.1      0.7     58      5.5      5.5   100      6.6     6.1      93     18.2    0.61     14      0      0      0      0    72.5    72.5      0     0.88      5.5      5.5      5.5   100    17.7     3.882     1.5    0.058    1.168      98        0.02    0.000    0.000     237.4    107.5    0.61   107.5     249.9     134.1     126.6     100.2      85.0      61.0    0.000     0.000     0.000     0.000     0.000    0.61     0.00    0.00      0   -9.90   -9.00        9.0       10.5       19.8       22.0       22.0       22.0       22.0       22.0       22.0       22.0       22.0       22.0        0.0        0.0        0.0        0.0        0.0        0.0        0.0        0.0        0.0        0.0        0.0        0.0      0.6       6.2      22.5      26.4      30.3    362.74
    24     3  1996    63     3     263.6     0.4     32.8    0.0   33.2    0.0      0.0      0.0   -9.90      1.2      1.2    100      5.9      5.9   100      7.1     7.1     100     17.6    0.61      0      0      0      0      0    72.8    72.8      0     0.88      5.9      5.9      5.9   100    17.7     4.037     1.7    0.070    1.392      98        0.02    0.000    0.000     263.6    133.7    0.61   133.7     249.9     134.1     127.7     101.2      85.7      61.0    0.000     0.000     0.000     0.000     0.000    0.61     0.00    0.00      0   -9.90   -9.00       34.8       10.9       19.8       22.0       22.0       22.0       22.0       22.0       22.0       22.0       22.0       22.0        0.0        0.0        0.0        0.0        0.0        0.0        0.0        0.0        0.0        0.0        0.0        0.0      0.4       6.7      21.2      25.5      29.8    362.74
    25     3  1996    64     3     256.9     0.2      0.0    0.0    0.2    0.0      0.0      0.0   -9.90      1.2      1.1     93      5.8      5.8   100      7.0     6.9      99     17.2    0.61      0      0      0      0      0    73.0    73.0      0     0.88      5.8      5.8      5.8   100    17.7     4.193     2.0    0.083    1.654      98        0.03    0.000    0.000     256.9    127.0    0.61   127.0     249.9     134.1     127.5     101.0      85.5      61.0    0.000     0.000     0.000     0.000     0.000    0.61     0.00    0.00      0   -9.90   -9.00       16.3       21.4       21.1       22.0       22.0       22.0       22.0       22.0       22.0       22.0       22.0       22.0        0.0        0.0        0.0        0.0        0.0        0.0        0.0        0.0        0.0        0.0        0.0        0.0      0.2       6.6      20.5      25.1      29.7    362.74
    26     3  1996    65     3     251.6     0.6      0.0    0.0    0.6    0.0      0.0      0.0   -9.90      1.0      1.0     98      4.9      4.9   100      5.9     5.9     100     17.5    0.61      0      0      0      0      0    73.3    73.3      0     0.88      4.9      4.9      4.9   100    17.7     4.350     2.3    0.098    1.962      98        0.03    0.000    0.000     251.6    121.7    0.61   121.7     249.9     134.1     124.8      98.8      83.9      61.0    0.000     0.000     0.000     0.000     0.000    0.61     0.00    0.00      0   -9.90   -9.00       11.0       21.4       21.1       22.0       22.0       22.0       22.0       22.0       22.0       22.0       22.0       22.0        0.0        0.0        0.0        0.0        0.0        0.0        0.0        0.0        0.0        0.0        0.0        0.0      0.6       5.6      21.0      25.4      29.9    362.74
    27     3  1996    66     3     246.2     0.8      0.0    0.0    0.8    0.0      0.0      0.0   -9.90      1.0      0.9     86      5.2      5.2   100      6.3     6.1      98     18.2    0.61      2      0      0      0      0    73.5    73.5      0     0.89      5.2      5.2      5.2   100    17.7     4.506     2.6    0.116    2.324      98        0.04    0.000    0.000     246.2    116.3    0.61   116.3     249.9     134.1     125.7      99.6      84.5      61.0    0.000     0.000     0.000     0.000     0.000    0.61     0.00    0.00      0   -9.90   -9.00        9.1       18.0       21.1       22.0       22.0       22.0       22.0       22.0       22.0       22.0       22.0       22.0        0.0        0.0        0.0        0.0        0.0        0.0        0.0        0.0        0.0        0.0        0.0        0.0      0.8       5.9      22.5      26.2      30.0    362.74
    28     3  1996    67     3     240.6     0.3      0.0    0.0    0.3    0.0      0.0      0.0   -9.90      1.0      0.4     40      5.5      5.5   100      6.5     5.9      90     18.0    0.61      9      0      0      0      0    73.9    73.9      0     0.89      5.5      5.5      5.5   100    17.7     4.663     2.9    0.137    2.747      98        0.04    0.000    0.000     240.6    110.7    0.61   110.7     249.9     134.1     126.3     100.1      84.9      61.0    0.000     0.000     0.000     0.000     0.000    0.61     0.00    0.00      0   -9.90   -9.00        8.9       13.8       19.9       22.0       22.0       22.0       22.0       22.0       22.0       22.0       22.0       22.0        0.0        0.0        0.0        0.0        0.0        0.0        0.0        0.0        0.0        0.0        0.0        0.0      0.3       6.2      22.0      26.0      30.0    362.74
    29     3  1996    68     3     264.7     0.7     29.2    0.0   29.9    0.0      0.0      0.0   -9.90      0.9      0.9    100      4.9      4.9   100      5.8     5.8     100     18.4    0.61     -9      0      0      0      0    74.0    74.0      0     0.89      4.9      4.9      4.9   100    17.7     4.821     3.4    0.162    3.240      98        0.05    0.000    0.000     264.7    134.8    0.61   134.8     249.9     134.1     124.5      98.6      83.7      61.0    0.000     0.000     0.000     0.000     0.000    0.61     0.00    0.00      0   -9.90   -9.00       33.0       13.8       19.9       22.0       22.0       22.0       22.0       22.0       22.0       22.0       22.0       22.0        0.0        0.0        0.0        0.0        0.0        0.0        0.0        0.0        0.0        0.0        0.0        0.0      0.7       5.5      22.8      26.2      29.6    362.74
    30     3  1996    69     3     264.8     4.8      0.0    0.0    4.8    0.0      0.1      0.0   -9.90      0.7      0.7    100      3.9      3.9   100      4.7     4.7     100     18.9    0.61     -9      0      0      0      0    74.1    74.1      0     0.89      3.9      3.9      3.9   100    17.7     4.978     3.8    0.191    3.815      98        0.06    0.000    0.000     264.8    134.9    0.61   134.9     249.9     134.1     121.6      96.3      82.0      61.0    0.000     0.000     0.000     0.000     0.000    0.61     0.00    0.00      0   -9.90   -9.00       22.5       22.2       22.1       22.0       22.0       22.0       22.0       22.0       22.0       22.0       22.0       22.0        0.0        0.0        0.0        0.0        0.0        0.0        0.0        0.0        0.0        0.0        0.0        0.0      4.8       4.4      23.8      26.6      29.5    362.74
    31     3  1996    70     3     265.6     6.7      0.0    0.0    6.7    0.0      0.6      0.0   -9.90      0.8      0.8    100      4.4      4.4   100      5.2     5.2     100     18.2    0.61     -9      0      0      0      0    74.2    74.2      0     0.89      4.4      4.4      4.4   100    17.7     5.136     4.4    0.224    4.482      98        0.06    0.000    0.000     265.6    135.7    0.61   135.7     249.9     134.1     123.0      97.4      82.8      61.0    0.000     0.000     0.000     0.000     0.000    0.61     0.00    0.00      0   -9.90   -9.00       23.5       22.0       22.0       22.0       22.0       22.0       22.0       22.0       22.0       22.0       22.0       22.0        0.0        0.0        0.0        0.0        0.0        0.0        0.0        0.0        0.0        0.0        0.0        0.0      6.7       5.0      22.4      26.2      30.1    362.74
     1     4  1996    71     3     260.4     1.2      0.0    0.0    1.2    0.0      1.2      0.0   -9.90      0.8      0.8    100      4.5      4.5   100      5.3     5.3     100     18.1    0.61     -9      0      0      0      0    74.3    74.3      0     0.89      4.5      4.5      4.5   100    17.7     5.293     5.0    0.263    5.254      98        0.07    0.000    0.000     260.4    130.4    0.61   130.4     249.9     134.1     123.2      97.6      82.9      61.0    0.000     0.000     0.000     0.000     0.000    0.61     0.00    0.00      0   -9.90   -9.00       18.0       22.1       22.1       22.0       22.0       22.0       22.0       22.0       22.0       22.0       22.0       22.0        0.0        0.0        0.0        0.0        0.0        0.0        0.0        0.0        0.0        0.0        0.0        0.0      1.2       5.0      22.3      26.2      30.2    362.74
     2     4  1996    72     3     256.8     1.1      0.0    0.0    1.1    0.0      0.3      0.0   -9.90      0.7      0.7    100      3.7      3.7   100      4.4     4.4     100     18.4    0.61     -9      0      0      0      0    74.4    74.4      0     0.89      3.7      3.7      3.7   100    17.7     5.451     5.6    0.307    6.145      98        0.09    0.000    0.000     256.8    126.9    0.61   126.9     249.9     134.1     120.9      95.7      81.5      61.0    0.000     0.000     0.000     0.000     0.000    0.61     0.00    0.00      0   -9.90   -9.00       14.7       22.0       22.0       22.0       22.0       22.0       22.0       22.0       22.0       22.0       22.0       22.0        0.0        0.0        0.0        0.0        0.0        0.0        0.0        0.0        0.0        0.0        0.0        0.0      1.1       4.2      22.8      26.5      30.2    362.74
     3     4  1996    73     3     257.2     6.3      0.0    0.0    6.3    0.0      0.0      0.0   -9.90      0.9      0.9    100      4.9      4.9   100      5.8     5.8     100     18.6    0.61     -9      0      0      0      0    74.5    74.5      0     0.89      4.9      4.9      4.9   100    17.7     5.609     6.4    0.358    7.170      98        0.10    0.000    0.000     257.2    127.3    0.61   127.3     249.9     134.1     124.6      98.7      83.8      61.0    0.000     0.000     0.000     0.000     0.000    0.61     0.00    0.00      0   -9.90   -9.00       15.2       22.0       22.0       22.0       22.0       22.0       22.0       22.0       22.0       22.0       22.0       22.0        0.0        0.0        0.0        0.0        0.0        0.0        0.0        0.0        0.0        0.0        0.0        0.0      6.3       5.5      23.2      27.0      30.9    362.74
     4     4  1996    74     3     276.9    23.0      0.0    0.0   22.6    0.4      0.0      0.0   -9.90      0.4      0.4    100      2.4      2.4   100      2.9     2.9     100     18.0    0.61     -9      0      0      0      0    74.5    74.5      0     0.89      2.4      2.4      2.4   100    17.7     5.766     7.2    0.417    8.344      98        0.11    0.000    0.000     276.9    147.0    0.61   147.0     249.9     134.1     116.9      92.6      79.1      61.0    0.000     0.000     0.000     0.000     0.000    0.61     0.00    0.00      0   -9.90   -9.00       34.9       22.0       22.0       22.0       22.0       22.0       22.0       22.0       22.0       22.0       22.0       22.0        0.0        0.0        0.0        0.0        0.0        0.0        0.0        0.0        0.0        0.0        0.0        0.0     23.0       2.7      22.0      26.6      31.1    362.74
     5     4  1996    75     3     291.8    33.2      0.0    0.0   27.6    5.6     10.2      0.0   -9.90      0.4      0.4    100      2.1      2.1   100      2.4     2.4     100     18.8    0.61     -9      0      0      0      0    74.6    74.6      0     0.89      2.1      2.1      2.1   100    17.7     5.924     8.2    0.484    9.685      98        0.13    0.000    0.000     291.8    161.2    0.61   161.2     249.9     134.1     115.8      91.7      78.4      61.0    0.000     0.000     0.000     0.000     0.000    0.61     0.00    0.00      0   -9.90   -9.00       38.6       31.4       22.4       22.3       22.2       22.2       22.2       22.1       22.1       22.1       22.1       22.1        0.0        0.0        0.0        0.0        0.0        0.0        0.0        0.0        0.0        0.0        0.0        0.0     33.2       2.3      23.5      28.4      33.2    362.74
     6     4  1996    76     3     274.2    10.8      0.0    0.0   10.5    0.3     24.3      0.0   -9.90      0.6      0.6    100      3.3      3.3   100      3.9     3.9     100     19.7    0.61     -9      0      0      0      0    74.7    74.7      0     0.89      3.3      3.3      3.3   100    17.7     6.081     9.2    0.560   11.208      98        0.15    0.000    0.000     274.2    142.9    0.61   142.9     249.9     134.1     119.5      94.6      80.7      61.0    0.000     0.000     0.000     0.000     0.000    0.61     0.00    0.00      0   -9.90   -9.00       28.9       22.2       22.4       22.4       22.4       22.4       22.3       22.3       22.3       22.2       22.2       22.2        0.0        0.0        0.0        0.0        0.0        0.0        0.0        0.0        0.0        0.0        0.0        0.0     10.8       3.7      25.4      29.8      34.2    362.74
     7     4  1996    77     3     276.0    14.3      0.0    0.0   13.6    0.7      8.2      0.0   -9.90      0.6      0.6    100      3.1      3.1   100      3.6     3.6     100     19.9    0.61     -9      0      0      0      0    74.7    74.7      0     0.89      3.1      3.1      3.1   100    17.7     6.238    10.4    0.646   12.930      99        0.17    0.000    0.000     276.0    145.6    0.61   145.6     249.9     134.1     118.9      94.2      80.3      61.0    0.000     0.000     0.000     0.000     0.000    0.61     0.00    0.00      0   -9.90   -9.00       32.4       22.4       22.3       22.2       22.2       22.1       22.1       22.1       22.1       22.1       22.1       22.1        0.0        0.0        0.0        0.0        0.0        0.0        0.0        0.0        0.0        0.0        0.0        0.0     14.3       3.4      25.7      30.5      35.2    362.74
     8     4  1996    78     3     275.6    13.6      0.0    0.0   13.0    0.6      9.5      0.0   -9.90      0.6      0.6    100      3.3      3.3   100      3.9     3.9     100     19.9    0.61     -9      0      0      0      0    74.7    74.7      0     0.89      3.3      3.3      3.3   100    17.7     6.395    11.6    0.743   14.868      99        0.20    0.000    0.000     275.6    145.1    0.61   145.1     249.9     134.1     119.6      94.8      80.8      61.0    0.000     0.000     0.000     0.000     0.000    0.61     0.00    0.00      0   -9.90   -9.00       31.5       22.4       22.4       22.3       22.2       22.2       22.1       22.1       22.1       22.1       22.1       22.1        0.0        0.0        0.0        0.0        0.0        0.0        0.0        0.0        0.0        0.0        0.0        0.0     13.6       3.7      25.7      30.8      35.9    362.74
     9     4  1996    79     3     271.3     8.6      0.0    0.0    8.5    0.1      9.1      0.0   -9.90      0.6      0.6    100      3.1      3.1   100      3.7     3.7     100     20.1    0.61     -9      0      0      0      0    74.8    74.8      0     0.89      3.1      3.1      3.1   100    17.7     6.552    12.9    0.848   16.959      99        0.22    0.000    0.000     271.3    140.8    0.61   140.8     249.9     134.1     119.1      94.3      80.4      61.0    0.000     0.000     0.000     0.000     0.000    0.61     0.00    0.00      0   -9.90   -9.00       27.3       22.5       22.3       22.3       22.2       22.2       22.1       22.1       22.1       22.1       22.1       22.1        0.0        0.0        0.0        0.0        0.0        0.0        0.0        0.0        0.0        0.0        0.0        0.0      8.6       3.5      26.2      31.1      36.0    362.74
    10     4  1996    80     3     263.5     2.2      0.0    0.0    2.2    0.0      5.6      0.0   -9.90      0.7      0.7    100      3.7      3.7   100      4.4     4.4     100     20.3    0.61     -9      0      0      0      0    74.8    74.8      0     0.89      3.7      3.7      3.7   100    17.7     6.709    14.3    0.957   19.132      99        0.25    0.000    0.000     263.5    133.2    0.61   133.2     249.9     134.1     120.8      95.7      81.5      61.0    0.000     0.000     0.000     0.000     0.000    0.61     0.00    0.00      0   -9.90   -9.00       20.0       22.4       22.2       22.2       22.2       22.1       22.1       22.1       22.1       22.1       22.1       22.1        0.0        0.0        0.0        0.0        0.0        0.0        0.0        0.0        0.0        0.0        0.0        0.0      2.2       4.2      26.6      30.8      35.0    362.74
    11     4  1996    81     3     258.7     1.4      0.0    0.0    1.4    0.0      1.3      0.0   -9.90      0.8      0.8    100      4.1      4.1   100      4.9     4.9     100     20.4    0.61     -9      0      0      0      0    74.8    74.8      0     0.89      4.1      4.1      4.1   100    17.7     6.866    15.6    1.069   21.388      99        0.27    0.000    0.000     258.7    128.8    0.61   128.8     249.9     134.1     122.2      96.8      82.4      61.0    0.000     0.000     0.000     0.000     0.000    0.61     0.00    0.00      0   -9.90   -9.00       16.5       22.0       22.0       22.0       22.0       22.0       22.0       22.0       22.0       22.0       22.0       22.0        0.0        0.0        0.0        0.0        0.0        0.0        0.0        0.0        0.0        0.0        0.0        0.0      1.4       4.7      26.7      31.2      35.8    362.74
    12     4  1996    82     3     261.7     7.4      0.0    0.0    7.4    0.0      0.2      0.0   -9.90      0.7      0.7    100      3.6      3.6   100      4.2     4.2     100     20.6    0.61     -9      0      0      0      0    74.8    74.8      0     0.89      3.6      3.6      3.6   100    17.7     7.022    16.9    1.186   23.726      99        0.30    0.000    0.000     261.7    131.8    0.61   131.8     249.9     134.1     120.5      95.4      81.3      61.0    0.000     0.000     0.000     0.000     0.000    0.61     0.00    0.00      0   -9.90   -9.00       19.7       22.0       22.0       22.0       22.0       22.0       22.0       22.0       22.0       22.0       22.0       22.0        0.0        0.0        0.0        0.0        0.0        0.0        0.0        0.0        0.0        0.0        0.0        0.0      7.4       4.0      27.3      31.3      35.3    362.74
    13     4  1996    83     3     285.9    30.3      0.0    0.0   27.3    3.0      0.0      0.0   -9.90      0.5      0.5    100      2.6      2.6   100      3.1     3.1     100     20.4    0.61     -9      0      0      0      0    74.9    74.9      0     0.88      2.6      2.6      2.6   100    17.7     7.179    18.2    1.307   26.146      99        0.33    0.000    0.000     285.9    156.0    0.61   156.0     249.9     134.1     117.6      93.1      79.5      61.0    0.000     0.000     0.000     0.000     0.000    0.61     0.00    0.00      0   -9.90   -9.00       37.9       28.0       22.0       22.0       22.0       22.0       22.0       22.0       22.0       22.0       22.0       22.0        0.0        0.0        0.0        0.0        0.0        0.0        0.0        0.0        0.0        0.0        0.0        0.0     30.3       3.0      26.8      31.0      35.3    362.74
    14     4  1996    84     3     285.4    23.3      0.0    0.0   20.8    2.5     18.7      0.0   -9.90      0.4      0.4    100      2.2      2.2   100      2.6     2.6     100     19.6    0.61     -9      0      0      0      0    74.9    74.9      0     0.88      2.2      2.2      2.2   100    17.7     7.335    19.5    1.432   28.648      99        0.36    0.000    0.000     285.4    154.3    0.61   154.3     249.9     134.1     116.3      92.1      78.8      61.0    0.000     0.000     0.000     0.000     0.000    0.61     0.00    0.00      0   -9.90   -9.00       38.4       24.2       22.4       22.4       22.4       22.3       22.3       22.2       22.2       22.2       22.2       22.2        0.0        0.0        0.0        0.0        0.0        0.0        0.0        0.0        0.0        0.0        0.0        0.0     23.3       2.5      25.3      30.3      35.3    362.74
    15     4  1996    85     3     300.9    48.6      0.0    0.0   36.3   12.3     18.4      0.0   -9.90      0.4      0.4    100      2.1      2.1   100      2.4     2.4     100     19.1    0.61     -9      0      0      0      0    74.9    74.9      0     0.88      2.1      2.1      2.1   100    17.7     7.491    20.8    1.562   31.231      99        0.39    0.000    0.000     300.9    169.9    0.61   169.9     249.9     134.1     115.8      91.8      78.5      61.0    0.000     0.000     0.000     0.000     0.000    0.61     0.00    0.00      0   -9.90   -9.00       40.2       38.0       22.5       22.4       22.3       22.3       22.3       22.2       22.2       22.2       22.2       22.2        0.0        0.0        0.0        0.0        0.0        0.0        0.0        0.0        0.0        0.0        0.0        0.0     48.6       2.3      24.2      29.2      34.2    362.74
    16     4  1996    86     3     283.7    22.9      0.0    0.0   20.5    2.4     33.4      0.0   -9.90      0.7      0.7    100      3.6      3.6   100      4.2     4.2     100     19.3    0.61     -9      0      0      0      0    74.9    74.9      0     0.88      3.6      3.6      3.6   100    17.7     7.647    22.2    1.695   33.896      99        0.41    0.000    0.000     283.7    152.0    0.61   152.0     249.9     134.1     120.6      95.5      81.4      61.0    0.000     0.000     0.000     0.000     0.000    0.61     0.00    0.00      0   -9.90   -9.00       39.7       20.7       22.2       22.4       22.4       22.4       22.4       22.4       22.3       22.3       22.3       22.3        0.0        0.0        0.0        0.0        0.0        0.0        0.0        0.0        0.0        0.0        0.0        0.0     22.9       4.1      24.6      29.4      34.2    362.74
    17     4  1996    87     3     267.7     5.3      0.0    0.0    5.3    0.0     16.9      0.0   -9.90      0.7      0.7    100      3.7      3.7   100      4.4     4.4     100     20.2    0.61     -9      0      0      0      0    74.9    74.9      0     0.88      3.7      3.7      3.7   100    17.7     7.803    23.5    1.832   36.643      99        0.44    0.000    0.000     267.7    136.8    0.61   136.8     249.9     134.1     121.0      95.8      81.6      61.0    0.000     0.000     0.000     0.000     0.000    0.61     0.00    0.00      0   -9.90   -9.00       23.0       22.2       22.4       22.4       22.3       22.3       22.2       22.2       22.2       22.2       22.2       22.1        0.0        0.0        0.0        0.0        0.0        0.0        0.0        0.0        0.0        0.0        0.0        0.0      5.3       4.2      26.4      31.8      37.3    362.74
[...]
    19     4  1996    89     3     271.6    11.3      0.0    0.0   11.0    0.3      1.0      0.0   -9.90      0.6      0.6    100      3.1      3.1   100      3.7     3.7     100     20.1    0.61     -9      0      0      0      0    74.9    74.9      0     0.88      3.1      3.1      3.1   100    17.7     8.114    26.1    2.119   42.380      99        0.50    0.000    0.000     271.6    141.7    0.61   141.7     249.9     134.1     119.2      94.4      80.5      61.0    0.000     0.000     0.000     0.000     0.000    0.61     0.00    0.00      0   -9.90   -9.00       29.4       22.1       22.0       22.0       22.0       22.0       22.0       22.0       22.0       22.0       22.0       22.0        0.0        0.0        0.0        0.0        0.0        0.0        0.0        0.0        0.0        0.0        0.0        0.0     11.3       3.6      26.3      30.6      35.0    362.74
    20     4  1996    90     3     268.7     6.8      0.0    0.0    6.8    0.0      5.6      0.0   -9.90      0.6      0.6    100      3.5      3.5   100      4.1     4.1     100     19.1    0.61     -9      0      0      0      0    74.9    74.9      0     0.88      3.5      3.5      3.5   100    17.7     8.270    27.4    2.269   45.370      99        0.53    0.000    0.000     268.7    138.4    0.61   138.4     249.9     134.1     120.2      95.2      81.1      61.0    0.000     0.000     0.000     0.000     0.000    0.61     0.00    0.00      0   -9.90   -9.00       25.1       22.4       22.3       22.2       22.1       22.1       22.1       22.1       22.1       22.1       22.1       22.1        0.0        0.0        0.0        0.0        0.0        0.0        0.0        0.0        0.0        0.0        0.0        0.0      6.8       3.9      24.3      28.4      32.4    362.74
    21     4  1996    91     3     282.0    23.0      0.0    0.0   20.6    2.4      3.6      0.0   -9.90      0.6      0.6    100      3.0      3.0   100      3.6     3.6     100     18.9    0.61     -9      0      0      0      0    75.0    75.0      0     0.88      3.0      3.0      3.0   100    17.7     8.425    28.7    2.422   48.441      99        0.56    0.000    0.000     282.0    151.9    0.61   151.9     249.9     134.1     118.9      94.2      80.4      61.0    0.000     0.000     0.000     0.000     0.000    0.61     0.00    0.00      0   -9.90   -9.00       37.4       24.0       22.1       22.1       22.1       22.1       22.1       22.1       22.0       22.0       22.0       22.0        0.0        0.0        0.0        0.0        0.0        0.0        0.0        0.0        0.0        0.0        0.0        0.0     23.0       3.5      23.9      27.8      31.7    362.74
    22     4  1996    92     3     319.9    98.7      0.0    0.0   55.7   43.0     15.2      0.0   -9.90      0.4      0.4    100      2.2      2.2   100      2.7     2.7     100     19.2    0.61     -9      0      0      0      0    75.0    75.0      0     0.88      2.2      2.2      2.2   100    17.7     8.580    30.1    2.580   51.593      99        0.60    0.000    0.000     319.9    188.9    0.61   188.9     249.9     134.1     116.4      92.3      78.8      61.0    0.000     0.000     0.000     0.000     0.000    0.61     0.00    0.00      0   -9.90   -9.00       38.3       41.0       40.3       22.4       22.4       22.3       22.3       22.2       22.2       22.2       22.2       22.1        0.0        0.0        0.0        0.0        0.0        0.0        0.0        0.0        0.0        0.0        0.0        0.0     98.7       2.6      24.5      28.1      31.7    362.74
    23     4  1996    93     3     300.0    45.3      0.0    0.0   34.6   10.7     52.3      0.0   -9.90      0.4      0.4    100      1.9      1.9   100      2.3     2.3     100     19.3    0.61     -9      0      0      0      0    75.0    75.0      0     0.88      1.9      1.9      1.9   100    17.7     8.735    31.4    2.741   54.826      99        0.63    0.000    0.000     300.0    167.7    0.61   167.7     249.9     134.1     115.5      91.5      78.3      61.0    0.000     0.000     0.000     0.000     0.000    0.61     0.00    0.00      0   -9.90   -9.00       40.3       36.3       22.1       22.1       22.4       22.4       22.5       22.4       22.4       22.4       22.4       22.3        0.0        0.0        0.0        0.0        0.0        0.0        0.0        0.0        0.0        0.0        0.0        0.0     45.3       2.2      24.6      28.5      32.4    362.74
    24     4  1996    94     3     282.9    21.3      0.0    0.0   19.3    2.0     32.5      0.0   -9.90      0.6      0.6    100      3.3      3.3   100      3.9     3.9     100     19.6    0.61     -9      0      0      0      0    75.0    75.0      0     0.87      3.3      3.3      3.3   100    17.7     8.889    32.7    2.907   58.139      99        0.66    0.000    0.000     282.9    151.2    0.61   151.2     249.9     134.1     119.6      94.8      80.8      61.0    0.000     0.000     0.000     0.000     0.000    0.61     0.00    0.00      0   -9.90   -9.00       39.8       19.7       22.2       22.4       22.4       22.4       22.4       22.3       22.3       22.3       22.3       22.2        0.0        0.0        0.0        0.0        0.0        0.0        0.0        0.0        0.0        0.0        0.0        0.0     21.3       3.7      25.2      29.0      32.8    362.74
    25     4  1996    95     3     283.0    21.3      0.0    0.0   19.3    2.0     16.2      0.0   -9.90      0.5      0.5    100      2.5      2.5   100      3.0     3.0     100     20.0    0.61     -9      0      0      0      0    75.0    75.0      0     0.87      2.5      2.5      2.5   100    17.7     9.044    34.0    3.077   61.532      99        0.70    0.000    0.000     283.0    152.0    0.61   152.0     249.9     134.1     117.3      92.9      79.4      61.0    0.000     0.000     0.000     0.000     0.000    0.61     0.00    0.00      0   -9.90   -9.00       40.1       20.4       22.4       22.4       22.3       22.3       22.3       22.2       22.2       22.2       22.2       22.1        0.0        0.0        0.0        0.0        0.0        0.0        0.0        0.0        0.0        0.0        0.0        0.0     21.3       2.9      26.0      28.8      31.5    362.74
    26     4  1996    96     3     278.0    16.3      0.0    0.0   15.3    1.0     16.2      0.0   -9.90      0.7      0.7    100      3.5      3.5   100      4.1     4.1     100     19.6    0.61     -9      0     -9      0      0    74.7    74.7      0     0.87      3.5      3.5      3.5   100    17.7     9.197    35.3    3.250   64.998      99        0.73    0.000    0.000     278.0    147.0    0.61   147.0     249.9     134.1     120.4      95.4      81.2      61.0    0.000     0.000     0.000     0.000     0.000    0.61     0.00    0.00      0   -9.90   -9.00       33.3       22.2       22.4       22.4       22.3       22.3       22.2       22.2       22.2       22.2       22.1       22.1        0.0        0.0        0.0        0.0        0.0        0.0        0.0        0.0        0.0        0.0        0.0        0.0     16.3       4.0      25.3      28.6      32.0    362.74
    27     4  1996    97     3     271.1     8.1      0.0    0.0    8.0    0.1     11.2      0.0   -9.90      0.6      0.6    100      3.1      3.1   100      3.7     3.7     100     19.8    0.61     -9      0     -9      0      0    74.3    74.3      0     0.86      3.1      3.1      3.1   100    17.7     9.349    36.7    3.427   68.536      99        0.76    0.000    0.000     271.1    140.4    0.61   140.4     249.9     134.1     119.3      94.5      80.6      61.0    0.000     0.000     0.000     0.000     0.000    0.61     0.00    0.00      0   -9.90   -9.00       26.8       22.4       22.4       22.3       22.2       22.2       22.2       22.1       22.1       22.1       22.1       22.1        0.0        0.0        0.0        0.0        0.0        0.0        0.0        0.0        0.0        0.0        0.0        0.0      8.1       3.6      25.6      28.8      32.0    362.74
    28     4  1996    98     3     270.4     8.9      0.0    0.0    8.8    0.1      5.5      0.0   -9.90      0.6      0.6    100      3.3      3.3   100      3.9     3.9     100     20.1    0.61     -9      0     -9      0      0    74.0    74.0      0     0.85      3.3      3.3      3.3   100    17.7     9.500    38.0    3.607   72.143      99        0.80    0.000    0.000     270.4    140.2    0.61   140.2     249.9     134.1     120.0      95.1      81.0      61.0    0.000     0.000     0.000     0.000     0.000    0.61     0.00    0.00      0   -9.90   -9.00       27.2       22.3       22.2       22.1       22.1       22.1       22.1       22.1       22.1       22.1       22.1       22.0        0.0        0.0        0.0        0.0        0.0        0.0        0.0        0.0        0.0        0.0        0.0        0.0      8.9       3.9      26.2      28.9      31.7    362.74
    29     4  1996    99     3     271.3     8.7      0.0    0.0    8.6    0.1      4.8      0.0   -9.90      0.5      0.5    100      2.4      2.4   100      2.9     2.9     100     19.2    0.61     -9      0     -9      0      0    73.6    73.6      0     0.84      2.4      2.4      2.4   100    17.7     9.649    39.3    3.791   75.818      99        0.83    0.000    0.000     271.3    141.1    0.61   141.1     249.9     134.1     117.4      93.0      79.4      61.0    0.000     0.000     0.000     0.000     0.000    0.61     0.00    0.00      0   -9.90   -9.00       28.0       22.4       22.2       22.1       22.1       22.1       22.1       22.1       22.1       22.1       22.0       22.0        0.0        0.0        0.0        0.0        0.0        0.0        0.0        0.0        0.0        0.0        0.0        0.0      8.7       2.9      24.5      28.1      31.6    362.74
    30     4  1996   100     3     274.6    12.2      0.0    0.0   11.8    0.4      5.5      0.0   -9.90      0.5      0.5    100      2.5      2.5   100      3.0     3.0     100     19.4    0.61     -9      0     -9      0      0    73.1    73.1      0     0.83      2.5      2.5      2.5   100    17.7     9.797    40.6    3.978   79.559      99        0.87    0.000    0.000     274.6    144.3    0.61   144.3     249.9     134.1     117.7      93.3      79.6      61.0    0.000     0.000     0.000     0.000     0.000    0.61     0.00    0.00      0   -9.90   -9.00       31.1       22.4       22.2       22.2       22.1       22.1       22.1       22.1       22.1       22.1       22.1       22.0        0.0        0.0        0.0        0.0        0.0        0.0        0.0        0.0        0.0        0.0        0.0        0.0     12.2       3.0      24.8      28.2      31.7    362.74
     1     5  1996   101     4     279.9    17.6      0.0    0.0   16.4    1.2      8.2      0.0   -9.90      0.5      0.5    100      2.3      2.3   100      2.8     2.8     100     19.6    0.61     -9      0     -9      0      0    72.7    72.7      0     0.82      2.3      2.3      2.3   100    17.7     9.943    41.9    4.168   83.364      99        0.90    0.000    0.000     279.9    149.4    0.61   149.4     249.9     134.1     117.0      92.7      79.2      61.0    0.000     0.000     0.000     0.000     0.000    0.61     0.00    0.00      0   -9.90   -9.00       35.8       22.4       22.3       22.3       22.2       22.2       22.2       22.1       22.1       22.1       22.1       22.1        0.0        0.0        0.0        0.0        0.0        0.0        0.0        0.0        0.0        0.0        0.0        0.0     17.6       2.8      25.3      28.5      31.6    362.74
     2     5  1996   102     4     276.3    11.8      0.0    0.0   11.4    0.4     13.1      0.0   -9.90      0.4      0.4    100      1.7      1.7   100      2.1     2.1     100     19.9    0.61     -9      0     -9      0      0    72.2    72.2      0     0.81      1.7      1.7      1.7   100    17.7    10.087    43.2    4.361   87.230      99        0.94    0.000    0.000     276.3    145.5    0.61   145.5     249.9     134.1     115.1      91.2      78.0      61.0    0.000     0.000     0.000     0.000     0.000    0.61     0.00    0.00      0   -9.90   -9.00       31.8       22.4       22.4       22.3       22.3       22.2       22.2       22.2       22.2       22.1       22.1       22.1        0.0        0.0        0.0        0.0        0.0        0.0        0.0        0.0        0.0        0.0        0.0        0.0     11.8       2.1      25.7      28.8      31.9    362.74
     3     5  1996   103     4     282.8    20.7      0.0    0.0   18.8    1.9      9.8      0.0   -9.90      0.5      0.5    100      2.0      2.0   100      2.5     2.5     100     19.4    0.61     -9      0     -9      0      0    71.7    71.7      0     0.80      2.0      2.0      2.0   100    17.7    10.229    44.6    4.558   91.154      99        0.98    0.000    0.000     282.8    152.2    0.61   152.2     249.9     134.1     116.3      92.1      78.7      61.0    0.000     0.000     0.000     0.000     0.000    0.61     0.00    0.00      0   -9.90   -9.00       38.4       22.5       22.4       22.3       22.2       22.2       22.2       22.1       22.1       22.1       22.1       22.1        0.0        0.0        0.0        0.0        0.0        0.0        0.0        0.0        0.0        0.0        0.0        0.0     20.7       2.5      24.9      28.3      31.7    362.74
     4     5  1996   104     4     315.3    80.2      0.0    0.0   49.8   30.4     16.0      0.0   -9.90      0.2      0.2    100      1.0      1.0   100      1.3     1.3     100     19.6    0.61     -9      0     -9      0      0    71.1    71.1      0     0.79      1.0      1.0      1.0   100    17.7    10.369    45.9    4.757   95.135      99        1.02    0.000    0.000     315.3    184.4    0.61   184.4     249.9     134.1     113.0      89.6      76.8      61.0    0.000     0.000     0.000     0.000     0.000    0.61     0.00    0.00      0   -9.90   -9.00       39.7       41.0       34.6       22.4       22.3       22.3       22.2       22.2       22.2       22.2       22.1       22.1        0.0        0.0        0.0        0.0        0.0        0.0        0.0        0.0        0.0        0.0        0.0        0.0     80.2       1.3      25.1      28.8      32.4    362.74
     5     5  1996   105     4     293.7    36.0      0.0    0.0   29.3    6.7     47.8      0.0   -9.90      0.6      0.6    100      2.6      2.6   100      3.2     3.2     100     19.6    0.61     -9      0     -9      0      0    70.4    70.4      0     0.78      2.6      2.6      2.6   100    17.7    10.507    47.2    4.958   99.169      99        1.06    0.000    0.000     293.7    161.5    0.61   161.5     249.9     134.1     118.5      93.9      80.1      61.0    0.000     0.000     0.000     0.000     0.000    0.61     0.00    0.00      0   -9.90   -9.00       39.8       30.5       22.1       22.2       22.4       22.4       22.4       22.4       22.4       22.4       22.4       22.3        0.0        0.0        0.0        0.0        0.0        0.0        0.0        0.0        0.0        0.0        0.0        0.0     36.0       3.3      25.3      28.6      32.0    362.74
     6     5  1996    -9     0     297.2    39.1      0.0    0.0   31.2    7.9     26.3      0.0   -9.90      1.3      1.3    100      0.0      0.0   100      1.3     1.3     100     19.8    0.61     -9     -9     -9      0     -9     0.0     0.0      0    -9.00      0.0      0.0      0.0   100    17.7    10.507    48.5    5.097  101.937      99        1.08    0.000    0.000     297.2    165.8    0.61   165.8     249.9     134.1     118.5      91.3      80.1      61.0    0.000     0.000     0.000     0.000     0.000    0.61     0.00    0.00      0   -9.90   -9.00       39.7       34.4       22.4       22.4       22.4       22.4       22.3       22.3       22.3       22.2       22.2       22.2        0.0        0.0        0.0        0.0        0.0        0.0        0.0        0.0        0.0        0.0        0.0        0.0     39.1       2.1      25.5      27.8      30.1    362.74
     7     5  1996    -9     0     317.1    83.3      0.0    0.0   50.8   32.5     29.7      0.0   -9.90      1.3      1.3    100      0.0      0.0   100      1.3     1.3     100     20.9    0.61     -9     -9     -9      0     -9     0.0     0.0      0    -9.00      0.0      0.0      0.0   100    17.7    10.507    49.0    5.148  102.968      99        1.10    0.000    0.000     317.1    185.5    0.61   185.5     249.9     134.1     118.5      89.3      80.1      61.0    0.000     0.000     0.000     0.000     0.000    0.61     0.00    0.00      0   -9.90   -9.00       39.7       41.0       35.4       22.4       22.4       22.4       22.4       22.3       22.3       22.3       22.2       22.2        0.0        0.0        0.0        0.0        0.0        0.0        0.0        0.0        0.0        0.0        0.0        0.0     83.3       1.2      27.7      30.0      32.4    362.74
     8     5  1996    -9     0     314.4    76.7      0.0    0.0   48.5   28.2     49.5      0.0   -9.90      1.7      1.7    100      0.0      0.0   100      1.7     1.7     100     20.9    0.61     -9     -9     -9      0     -9     0.0     0.0      0    -9.00      0.0      0.0      0.0   100    17.7    10.507    49.0    5.148  102.968      99        1.10    0.000    0.000     314.4    182.2    0.61   182.2     249.9     134.1     118.5      90.0      80.1      61.0    0.000     0.000     0.000     0.000     0.000    0.61     0.00    0.00      0   -9.90   -9.00       39.3       41.0       32.7       22.2       22.4       22.4       22.4       22.4       22.4       22.4       22.4       22.3        0.0        0.0        0.0        0.0        0.0        0.0        0.0        0.0        0.0        0.0        0.0        0.0     76.7       1.5      27.8      30.5      33.1    362.74
     9     5  1996    -9     0     303.5    50.5      0.0    0.0   37.3   13.2     46.7      0.0   -9.90      1.4      1.4    100      0.0      0.0   100      1.4     1.4     100     20.7    0.61     -9     -9     -9      0     -9     0.0     0.0      0    -9.00      0.0      0.0      0.0   100    17.7    10.507    49.0    5.148  102.968      99        1.10    0.000    0.000     303.5    171.4    0.61   171.4     249.9     134.1     118.5      89.5      80.1      61.0    0.000     0.000     0.000     0.000     0.000    0.61     0.00    0.00      0   -9.90   -9.00       39.6       40.5       22.1       22.3       22.4       22.5       22.4       22.4       22.4       22.4       22.3       22.3        0.0        0.0        0.0        0.0        0.0        0.0        0.0        0.0        0.0        0.0        0.0        0.0     50.5       1.3      27.4      30.8      34.1    362.74
    10     5  1996    -9     0     274.3    10.2      0.0    0.0   10.0    0.2     36.0      0.0   -9.90      3.2      3.2    100      0.0      0.0   100      3.2     3.2     100     20.2    0.61     -9     -9     -9      0     -9     0.0     0.0      0    -9.00      0.0      0.0      0.0   100    17.7    10.507    49.0    5.148  102.968      99        1.10    0.000    0.000     274.3    142.5    0.61   142.5     249.9     134.1     118.5      93.0      80.1      61.0    0.000     0.000     0.000     0.000     0.000    0.61     0.00    0.00      0   -9.90   -9.00       28.9       22.1       22.1       22.4       22.5       22.4       22.4       22.4       22.3       22.3       22.3       22.3        0.0        0.0        0.0        0.0        0.0        0.0        0.0        0.0        0.0        0.0        0.0        0.0     10.2       2.9      26.4      30.5      34.6    362.74
