AquaCrop 7.2 (August 2024) - Output created on (date) : 27-12-2024   at (time) : 21:00:28

   Day Month  Year   DAP Stage    Irri  IrrInt
                                    mm    days
     9     1  1997     1    -9     0.0     5
    10     1  1997     2    -9     0.0     5
    11     1  1997     3    -9     0.0     5
    12     1  1997     4    -9     0.0     5
    13     1  1997     5    -9    14.7     5
    14     1  1997     6    -9     0.0     7
    15     1  1997     7    -9     0.0     7
    16     1  1997     8    -9     0.0     7
    17     1  1997     9    -9     0.0     7
    18     1  1997    10    -9     0.0     7
    19     1  1997    11    -9     0.0     7
    20     1  1997    12    -9    16.9     7
    21     1  1997    13    -9     0.0     3
    22     1  1997    14    -9     0.0     3
    23     1  1997    15    -9    15.0     3
    24     1  1997    16    -9     0.0     5
    25     1  1997    17    -9     0.0     5
    26     1  1997    18    -9     0.0     5
    27     1  1997    19    -9     0.0     5
    28     1  1997    20    -9    16.5     5
    29     1  1997    21    -9     0.0     6
    30     1  1997    22    -9     0.0     6
    31     1  1997    23    -9     0.0     6
     1     2  1997    24    -9     0.0     6
     2     2  1997    25    -9     0.0     6
     3     2  1997    26    -9    18.9     6
     4     2  1997    27    -9     0.0     4
     5     2  1997    28    -9     0.0     4
     6     2  1997    29    -9     0.0     4
     7     2  1997    30    -9    18.2     4
     8     2  1997    31    -9     0.0     3
     9     2  1997    32    -9     0.0     3
    10     2  1997    33    -9    17.1     3
    11     2  1997    34    -9     0.0     3
    12     2  1997    35    -9     0.0     3
    13     2  1997    36    -9    18.4     3
    14     2  1997    37    -9     0.0     4
    15     2  1997    38    -9     0.0     4
    16     2  1997    39    -9     0.0     4
    17     2  1997    40    -9    22.3     4
    18     2  1997    41    -9     0.0     4
    19     2  1997    42    -9     0.0     4
    20     2  1997    43    -9     0.0     4
    21     2  1997    44    -9    21.3     4
    22     2  1997    45    -9     0.0     3
    23     2  1997    46    -9     0.0     3
    24     2  1997    47    -9    21.9     3
    25     2  1997    48    -9     0.0     4
    26     2  1997    49    -9     0.0     4
    27     2  1997    50    -9     0.0     4
    28     2  1997    51    -9    25.6     4
     1     3  1997    52    -9     0.0     5
     2     3  1997    53    -9     0.0     5
     3     3  1997    54    -9     0.0     5
     4     3  1997    55    -9     0.0     5
     5     3  1997    56    -9    25.8     5
     6     3  1997    57    -9     0.0     3
     7     3  1997    58    -9     0.0     3
     8     3  1997    59    -9    23.0     3
     9     3  1997    60    -9     0.0     3
    10     3  1997    61    -9     0.0     3
    11     3  1997    62    -9    25.2     3
    12     3  1997    63    -9     0.0     4
    13     3  1997    64    -9     0.0     4
    14     3  1997    65    -9     0.0     4
    15     3  1997    66    -9    25.1     4
    16     3  1997    67    -9     0.0     5
    17     3  1997    68    -9     0.0     5
    18     3  1997    69    -9     0.0     5
    19     3  1997    70    -9     0.0     5
    20     3  1997    71    -9    28.4     5
    21     3  1997    72    -9     0.0     3
    22     3  1997    73    -9     0.0     3
    23     3  1997    74    -9    22.3     3
    24     3  1997    75    -9     0.0     4
    25     3  1997    76    -9     0.0     4
    26     3  1997    77    -9     0.0     4
    27     3  1997    78    -9    23.6     4
    28     3  1997    79    -9     0.0     4
    29     3  1997    80    -9     0.0     4
    30     3  1997    81    -9     0.0     4
    31     3  1997    82    -9    23.3     4
     1     4  1997    83    -9     0.0    -9
     2     4  1997    84    -9     0.0    -9
     3     4  1997    85    -9     0.0    -9
     4     4  1997    -9    -9     0.0    -9
