AquaCrop 7.2 (August 2024) - Output created on (date) : 12-12-2024   at (time) : 09:51:27

   Day Month  Year   DAP Stage    Irri  IrrInt
                                    mm    days
    22     1  1996     1    -9     0.0    12
    23     1  1996     2    -9     0.0    12
    24     1  1996     3    -9     0.0    12
    25     1  1996     4    -9     0.0    12
    26     1  1996     5    -9     0.0    12
    27     1  1996     6    -9     0.0    12
    28     1  1996     7    -9     0.0    12
    29     1  1996     8    -9     0.0    12
    30     1  1996     9    -9     0.0    12
    31     1  1996    10    -9     0.0    12
     1     2  1996    11    -9     0.0    12
     2     2  1996    12    -9    16.4    12
     3     2  1996    13    -9     0.0     6
     4     2  1996    14    -9     0.0     6
     5     2  1996    15    -9     0.0     6
     6     2  1996    16    -9     0.0     6
     7     2  1996    17    -9     0.0     6
     8     2  1996    18    -9    18.5     6
     9     2  1996    19    -9     0.0     8
    10     2  1996    20    -9     0.0     8
    11     2  1996    21    -9     0.0     8
    12     2  1996    22    -9     0.0     8
    13     2  1996    23    -9     0.0     8
    14     2  1996    24    -9     0.0     8
    15     2  1996    25    -9     0.0     8
    16     2  1996    26    -9    21.0     8
    17     2  1996    27    -9     0.0     7
    18     2  1996    28    -9     0.0     7
    19     2  1996    29    -9     0.0     7
    20     2  1996    30    -9     0.0     7
    21     2  1996    31    -9     0.0     7
    22     2  1996    32    -9     0.0     7
    23     2  1996    33    -9    22.8     7
    24     2  1996    34    -9     0.0     3
    25     2  1996    35    -9     0.0     3
    26     2  1996    36    -9    21.1     3
    27     2  1996    37    -9     0.0     4
    28     2  1996    38    -9     0.0     4
    29     2  1996    39    -9     0.0     4
     1     3  1996    40    -9    23.0     4
     2     3  1996    41    -9     0.0     3
     3     3  1996    42    -9     0.0     3
     4     3  1996    43    -9    23.0     3
     5     3  1996    44    -9     0.0     4
     6     3  1996    45    -9     0.0     4
     7     3  1996    46    -9     0.0     4
     8     3  1996    47    -9    26.4     4
     9     3  1996    48    -9     0.0     3
    10     3  1996    49    -9     0.0     3
    11     3  1996    50    -9    23.2     3
    12     3  1996    51    -9     0.0     2
    13     3  1996    52    -9    24.3     2
    14     3  1996    53    -9     0.0     3
    15     3  1996    54    -9     0.0     3
    16     3  1996    55    -9    28.4     3
    17     3  1996    56    -9     0.0     3
    18     3  1996    57    -9     0.0     3
    19     3  1996    58    -9    27.6     3
    20     3  1996    59    -9     0.0     2
    21     3  1996    60    -9    21.0     2
    22     3  1996    61    -9     0.0     3
    23     3  1996    62    -9     0.0     3
    24     3  1996    63    -9    25.7     3
    25     3  1996    64    -9     0.0     2
    26     3  1996    65    -9    22.8     2
    27     3  1996    66    -9     0.0     3
    28     3  1996    67    -9     0.0     3
    29     3  1996    68    -9    26.7     3
    30     3  1996    69    -9     0.0     4
    31     3  1996    70    -9     0.0     4
     1     4  1996    71    -9     0.0     4
     2     4  1996    72    -9    29.5     4
     3     4  1996    73    -9     0.0     6
     4     4  1996    74    -9     0.0     6
     5     4  1996    75    -9     0.0     6
     6     4  1996    76    -9     0.0     6
     7     4  1996    77    -9     0.0     6
     8     4  1996    78    -9    34.7     6
     9     4  1996    79    -9     0.0     4
    10     4  1996    80    -9     0.0     4
    11     4  1996    81    -9     0.0     4
    12     4  1996    82    -9    34.8     4
    13     4  1996    83    -9     0.0     4
    14     4  1996    84    -9     0.0     4
    15     4  1996    85    -9     0.0     4
    16     4  1996    86    -9    31.6     4
    17     4  1996    87    -9     0.0     4
    18     4  1996    88    -9     0.0     4
    19     4  1996    89    -9     0.0     4
    20     4  1996    90    -9    30.9     4
    21     4  1996    91    -9     0.0     3
    22     4  1996    92    -9     0.0     3
    23     4  1996    93    -9    24.6     3
    24     4  1996    94    -9     0.0     4
    25     4  1996    95    -9     0.0     4
    26     4  1996    96    -9     0.0     4
    27     4  1996    97    -9    32.2     4
    28     4  1996    98    -9     0.0     4
    29     4  1996    99    -9     0.0     4
    30     4  1996   100    -9     0.0     4
     1     5  1996   101    -9    28.1     4
     2     5  1996   102    -9     0.0     3
     3     5  1996   103    -9     0.0     3
     4     5  1996   104    -9    26.4     3
     5     5  1996   105    -9     0.0    -9
     6     5  1996    -9    -9     0.0    -9
     7     5  1996    -9    -9     0.0    -9
     8     5  1996    -9    -9     0.0    -9
     9     5  1996    -9    -9     0.0    -9
    10     5  1996    -9    -9     0.0    -9
