AquaCrop 7.2 (August 2024) - Output created on (date) : 22-12-2024   at (time) : 21:12:04
