AquaCrop 7.2 (August 2024) - Output created on (date) : 08-12-2024   at (time) : 23:23:49

   Day Month  Year   DAP Stage    Irri  IrrInt
                                    mm    days
    22     1  1996     1    -9     0.0    35
    23     1  1996     2    -9     0.0    35
    24     1  1996     3    -9     0.0    35
    25     1  1996     4    -9     0.0    35
    26     1  1996     5    -9     0.0    35
    27     1  1996     6    -9     0.0    35
    28     1  1996     7    -9     0.0    35
    29     1  1996     8    -9     0.0    35
    30     1  1996     9    -9     0.0    35
    31     1  1996    10    -9     0.0    35
     1     2  1996    11    -9     0.0    35
     2     2  1996    12    -9     0.0    35
     3     2  1996    13    -9     0.0    35
     4     2  1996    14    -9     0.0    35
     5     2  1996    15    -9     0.0    35
     6     2  1996    16    -9     0.0    35
     7     2  1996    17    -9     0.0    35
     8     2  1996    18    -9     0.0    35
     9     2  1996    19    -9     0.0    35
    10     2  1996    20    -9     0.0    35
    11     2  1996    21    -9     0.0    35
    12     2  1996    22    -9     0.0    35
    13     2  1996    23    -9     0.0    35
    14     2  1996    24    -9     0.0    35
    15     2  1996    25    -9     0.0    35
    16     2  1996    26    -9     0.0    35
    17     2  1996    27    -9     0.0    35
    18     2  1996    28    -9     0.0    35
    19     2  1996    29    -9     0.0    35
    20     2  1996    30    -9     0.0    35
    21     2  1996    31    -9     0.0    35
    22     2  1996    32    -9     0.0    35
    23     2  1996    33    -9     0.0    35
    24     2  1996    34    -9     0.0    35
    25     2  1996    35    -9    42.4    35
    26     2  1996    36    -9     0.0    11
    27     2  1996    37    -9     0.0    11
    28     2  1996    38    -9     0.0    11
    29     2  1996    39    -9     0.0    11
     1     3  1996    40    -9     0.0    11
     2     3  1996    41    -9     0.0    11
     3     3  1996    42    -9     0.0    11
     4     3  1996    43    -9     0.0    11
     5     3  1996    44    -9     0.0    11
     6     3  1996    45    -9     0.0    11
     7     3  1996    46    -9    52.0    11
     8     3  1996    47    -9     0.0     9
     9     3  1996    48    -9     0.0     9
    10     3  1996    49    -9     0.0     9
    11     3  1996    50    -9     0.0     9
    12     3  1996    51    -9     0.0     9
    13     3  1996    52    -9     0.0     9
    14     3  1996    53    -9     0.0     9
    15     3  1996    54    -9     0.0     9
    16     3  1996    55    -9    53.4     9
    17     3  1996    56    -9     0.0     7
    18     3  1996    57    -9     0.0     7
    19     3  1996    58    -9     0.0     7
    20     3  1996    59    -9     0.0     7
    21     3  1996    60    -9     0.0     7
    22     3  1996    61    -9     0.0     7
    23     3  1996    62    -9    51.1     7
    24     3  1996    63    -9     0.0     7
    25     3  1996    64    -9     0.0     7
    26     3  1996    65    -9     0.0     7
    27     3  1996    66    -9     0.0     7
    28     3  1996    67    -9     0.0     7
    29     3  1996    68    -9     0.0     7
    30     3  1996    69    -9    49.9     7
    31     3  1996    70    -9     0.0     6
     1     4  1996    71    -9     0.0     6
     2     4  1996    72    -9     0.0     6
     3     4  1996    73    -9     0.0     6
     4     4  1996    74    -9     0.0     6
     5     4  1996    75    -9    46.3     6
     6     4  1996    76    -9     0.0    14
     7     4  1996    77    -9     0.0    14
     8     4  1996    78    -9     0.0    14
     9     4  1996    79    -9     0.0    14
    10     4  1996    80    -9     0.0    14
    11     4  1996    81    -9     0.0    14
    12     4  1996    82    -9     0.0    14
    13     4  1996    83    -9     0.0    14
    14     4  1996    84    -9     0.0    14
    15     4  1996    85    -9     0.0    14
    16     4  1996    86    -9     0.0    14
    17     4  1996    87    -9     0.0    14
    18     4  1996    88    -9     0.0    14
    19     4  1996    89    -9    54.5    14
    20     4  1996    90    -9     0.0     8
    21     4  1996    91    -9     0.0     8
    22     4  1996    92    -9     0.0     8
    23     4  1996    93    -9     0.0     8
    24     4  1996    94    -9     0.0     8
    25     4  1996    95    -9     0.0     8
    26     4  1996    96    -9     0.0     8
    27     4  1996    97    -9    52.1     8
    28     4  1996    98    -9     0.0     5
    29     4  1996    99    -9     0.0     5
    30     4  1996   100    -9     0.0     5
     1     5  1996   101    -9     0.0     5
     2     5  1996   102    -9    46.9     5
     3     5  1996   103    -9     0.0     6
     4     5  1996   104    -9     0.0     6
     5     5  1996   105    -9     0.0     6
     6     5  1996   106    -9     0.0     6
     7     5  1996   107    -9     0.0     6
     8     5  1996   108    -9    48.8     6
     9     5  1996   109    -9     0.0    -9
    10     5  1996   110    -9     0.0    -9
