AquaCrop 7.2 (August 2024) - Output created on (date) : 12-12-2024   at (time) : 08:32:10
Biomass and Yield at Multiple cuttings
