AquaCrop 7.2 (August 2024) - Output created on (date) : 11-12-2024   at (time) : 22:25:06
Biomass and Yield at Multiple cuttings
