AquaCrop 7.2 (August 2024) - Output created on (date) : 27-12-2024   at (time) : 19:57:20
Biomass and Yield at Multiple cuttings
