AquaCrop 7.2 (August 2024) - Output created on (date) : 10-12-2024   at (time) : 16:13:08
