AquaCrop 7.2 (August 2024) - Output created on (date) : 12-12-2024   at (time) : 03:15:44
Biomass and Yield at Multiple cuttings
