AquaCrop 7.2 (August 2024) - Output created on (date) : 08-12-2024   at (time) : 14:51:36
Biomass and Yield at Multiple cuttings

    Nr   Day  Month Year   DAP Interval  Biomass    Sum(B)   Dry-Yield  Sum(Y) Fresh-Yield  Sum(Y)
                                 days     ton/ha    ton/ha    ton/ha    ton/ha    ton/ha    ton/ha
     0    22     1  1993                             0.000               0.000               0.000
  9999    12     5  1993                            11.184               7.044             140.871
  9999    12     5  1993                            11.184               7.044             140.871
