AquaCrop 7.2 (August 2024) - Output created on (date) : 27-12-2024   at (time) : 21:00:28

   Day Month  Year   DAP Stage   WC(1.20)   Rain     Irri   Surf   Infilt   RO    Drain       CR    Zgwt       Ex       E     E/Ex     Trx       Tr  Tr/Trx    ETx      ET  ET/ETx      GD       Z     StExp  StSto  StSen StSalt StWeed   CC      CCw     StTr  Kc(Tr)     Trx       Tr      TrW  Tr/Trx   WP    Biomass     HI    Y(dry)  Y(fresh)  Brelative    WPet      Bin     Bout  WC(1.20) Wr(0.46)     Z       Wr    Wr(SAT)    Wr(FC)   Wr(exp)   Wr(sto)   Wr(sen)   Wr(PWP)    SaltIn    SaltOut   SaltUp   Salt(1.20)  SaltZ     Z       ECe    ECsw   StSalt  Zgwt    ECgw       WC01       WC 2       WC 3       WC 4       WC 5       WC 6       WC 7       WC 8       WC 9       WC10       WC11       WC12      ECe01      ECe 2      ECe 3      ECe 4      ECe 5      ECe 6      ECe 7      ECe 8      ECe 9      ECe10      ECe11      ECe12     Rain       ETo      Tmin      Tavg      Tmax      CO2
                                      mm      mm       mm     mm     mm     mm       mm       mm      m        mm       mm     %        mm       mm    %        mm      mm       %  degC-day     m       %      %      %      %      %      %       %       %       -        mm       mm       mm    %     g/m2    ton/ha      %    ton/ha   ton/ha       %       kg/m3   ton/ha   ton/ha      mm       mm       m       mm        mm        mm        mm        mm        mm         mm    ton/ha    ton/ha    ton/ha    ton/ha    ton/ha     m      dS/m    dS/m      %     m      dS/m       0.05       0.15       0.25       0.35       0.45       0.55       0.65       0.75       0.85       0.95       1.05       1.15       0.05       0.15       0.25       0.35       0.45       0.55       0.65       0.75       0.85       0.95       1.05       1.15       mm        mm     degC      degC      degC       ppm
     9     1  1997     1     1     261.6     0.7      0.0    0.0    0.7    0.0      0.0      0.0   -9.90      3.7      3.1     85      0.0      0.0   100      3.7     3.1      85     18.0    0.30     -9     -9     -9      0     -9     0.0     0.0      0    -9.00      0.0      0.0      0.0   100     0.0     0.000    -9.9    0.000    0.000      -9        0.00    0.000    0.000     261.6     98.2    0.30    63.6     123.0      66.0      60.6      46.2      40.8      30.0    0.000     0.000     0.000     0.000     0.000    0.30     0.00    0.00      0   -9.90   -9.00       19.6       22.0       22.0       22.0       22.0       22.0       22.0       22.0       22.0       22.0       22.0       22.0        0.0        0.0        0.0        0.0        0.0        0.0        0.0        0.0        0.0        0.0        0.0        0.0      0.7       3.3      22.0      26.3      30.6    363.88
    10     1  1997     2     1     258.6     0.8      0.0    0.0    0.8    0.0      0.0      0.0   -9.90      4.8      3.8     80      0.0      0.0   100      4.8     3.8      80     18.4    0.30     -9     -9     -9      0     -9     0.0     0.0      0    -9.00      0.0      0.0      0.0   100     0.0     0.000    -9.9    0.000    0.000      -9        0.00    0.000    0.000     258.6     95.2    0.30    60.6     123.0      66.0      60.6      47.3      40.8      30.0    0.000     0.000     0.000     0.000     0.000    0.30     0.00    0.00      0   -9.90   -9.00       16.6       22.0       22.0       22.0       22.0       22.0       22.0       22.0       22.0       22.0       22.0       22.0        0.0        0.0        0.0        0.0        0.0        0.0        0.0        0.0        0.0        0.0        0.0        0.0      0.8       4.3      22.7      27.8      32.9    363.88
    11     1  1997     3     1     256.5     0.0      1.0    0.0    1.0    0.0      0.0      0.0   -9.90      3.8      3.0     80      0.0      0.0   100      3.8     3.0      80     18.4    0.30     -9     -9     -9      0     -9     0.0     0.0      0    -9.00      0.0      0.0      0.0   100     0.0     0.000    -9.9    0.000    0.000      -9        0.00    0.000    0.000     256.5     93.1    0.30    58.5     123.0      66.0      60.6      47.7      40.8      30.0    0.010     0.000     0.000     0.010     0.010    0.30     0.01    0.03      0   -9.90   -9.00       14.5       22.0       22.0       22.0       22.0       22.0       22.0       22.0       22.0       22.0       22.0       22.0        0.0        0.0        0.0        0.0        0.0        0.0        0.0        0.0        0.0        0.0        0.0        0.0      0.0       4.7      22.9      28.6      34.3    363.88
    12     1  1997     4     1     255.0     0.0      0.0    0.0    0.0    0.0      0.0      0.0   -9.90      3.0      1.6     51      0.0      0.0   100      3.0     1.6      51     17.4    0.30     -9     -9     -9      0     -9     0.0     0.0      0    -9.00      0.0      0.0      0.0   100     0.0     0.000    -9.9    0.000    0.000      -9        0.00    0.000    0.000     255.0     91.5    0.30    57.0     123.0      66.0      60.6      47.7      40.8      30.0    0.000     0.000     0.000     0.010     0.010    0.30     0.01    0.03      0   -9.90   -9.00       13.0       22.0       22.0       22.0       22.0       22.0       22.0       22.0       22.0       22.0       22.0       22.0        0.0        0.0        0.0        0.0        0.0        0.0        0.0        0.0        0.0        0.0        0.0        0.0      0.0       4.7      20.8      26.9      33.0    363.88
    13     1  1997     5     1     254.2     0.0      0.0    0.0    0.0    0.0      0.0      0.0   -9.90      1.8      0.7     41      0.0      0.0   100      1.8     0.7      41     17.6    0.30     -9     -9     -9      0     -9     0.0     0.0      0    -9.00      0.0      0.0      0.0   100     0.0     0.000    -9.9    0.000    0.000      -9        0.00    0.000    0.000     254.2     90.8    0.30    56.2     123.0      66.0      60.6      48.5      40.8      30.0    0.000     0.000     0.000     0.010     0.010    0.30     0.01    0.03      0   -9.90   -9.00       12.2       22.0       22.0       22.0       22.0       22.0       22.0       22.0       22.0       22.0       22.0       22.0        0.0        0.0        0.0        0.0        0.0        0.0        0.0        0.0        0.0        0.0        0.0        0.0      0.0       5.4      21.3      27.0      32.8    363.88
    14     1  1997     6     1     254.0     0.0      1.0    0.0    1.0    0.0      0.0      0.0   -9.90      1.8      1.2     64      0.0      0.0   100      1.8     1.2      64     17.1    0.30     -9     -9     -9      0     -9     0.0     0.0      0    -9.00      0.0      0.0      0.0   100     0.0     0.000    -9.9    0.000    0.000      -9        0.00    0.000    0.000     254.0     90.6    0.30    56.0     123.0      66.0      60.6      48.6      40.8      30.0    0.010     0.000     0.000     0.019     0.019    0.30     0.02    0.07      0   -9.90   -9.00       12.0       22.0       22.0       22.0       22.0       22.0       22.0       22.0       22.0       22.0       22.0       22.0        0.1        0.0        0.0        0.0        0.0        0.0        0.0        0.0        0.0        0.0        0.0        0.0      0.0       5.6      20.1      25.1      30.2    363.88
    15     1  1997     7     1     253.3     0.0      0.0    0.0    0.0    0.0      0.0      0.0   -9.90      1.5      0.7     48      0.0      0.0   100      1.5     0.7      48     15.9    0.30     -9     -9     -9      0     -9     0.0     0.0      0    -9.00      0.0      0.0      0.0   100     0.0     0.000    -9.9    0.000    0.000      -9        0.00    0.000    0.000     253.3     89.9    0.30    55.3     123.0      66.0      60.6      47.4      40.8      30.0    0.000     0.000     0.000     0.019     0.019    0.30     0.02    0.07      0   -9.90   -9.00       11.3       22.0       22.0       22.0       22.0       22.0       22.0       22.0       22.0       22.0       22.0       22.0        0.0        0.0        0.0        0.0        0.0        0.0        0.0        0.0        0.0        0.0        0.0        0.0      0.0       4.4      17.8      23.1      28.5    363.88
    16     1  1997     8     1     252.8     0.0      0.0    0.0    0.0    0.0      0.0      0.0   -9.90      1.3      0.5     42      0.0      0.0   100      1.3     0.5      42     15.2    0.30     -9     -9     -9      0     -9     0.0     0.0      0    -9.00      0.0      0.0      0.0   100     0.0     0.000    -9.9    0.000    0.000      -9        0.00    0.000    0.000     252.8     89.4    0.30    54.8     123.0      66.0      60.6      46.9      40.8      30.0    0.000     0.000     0.000     0.019     0.019    0.30     0.02    0.07      0   -9.90   -9.00       10.8       22.0       22.0       22.0       22.0       22.0       22.0       22.0       22.0       22.0       22.0       22.0        0.0        0.0        0.0        0.0        0.0        0.0        0.0        0.0        0.0        0.0        0.0        0.0      0.0       4.0      16.7      22.2      27.7    363.88
    17     1  1997     9     1     253.0     0.0      1.0    0.0    1.0    0.0      0.0      0.0   -9.90      1.3      0.8     56      0.0      0.0   100      1.3     0.8      56     15.6    0.30     -9     -9     -9      0     -9     0.0     0.0      0    -9.00      0.0      0.0      0.0   100     0.0     0.000    -9.9    0.000    0.000      -9        0.00    0.000    0.000     253.0     89.6    0.30    55.0     123.0      66.0      60.6      47.0      40.8      30.0    0.010     0.000     0.000     0.029     0.028    0.30     0.04    0.11      0   -9.90   -9.00       11.0       22.0       22.0       22.0       22.0       22.0       22.0       22.0       22.0       22.0       22.0       22.0        0.1        0.0        0.0        0.0        0.0        0.0        0.0        0.0        0.0        0.0        0.0        0.0      0.0       4.0      17.1      22.6      28.0    363.88
    18     1  1997    10     2     252.5     0.0      0.0    0.0    0.0    0.0      0.0      0.0   -9.90      1.2      0.5     39      0.1      0.1   100      1.3     0.5      42     15.3    0.30     -9      0      0      0      0     0.8     0.8      0     0.01      0.1      0.1      0.1   100    17.7     0.002    -9.9    0.000    0.000     100        0.00    0.000    0.000     252.5     89.1    0.30    54.5     123.0      66.0      59.0      46.7      39.8      30.0    0.000     0.000     0.000     0.029     0.028    0.30     0.04    0.11      0   -9.90   -9.00       10.5       22.0       22.0       22.0       22.0       22.0       22.0       22.0       22.0       22.0       22.0       22.0        0.1        0.0        0.0        0.0        0.0        0.0        0.0        0.0        0.0        0.0        0.0        0.0      0.0       3.8      16.8      22.3      27.8    363.88
    19     1  1997    11     2     252.7     0.0      1.0    0.0    1.0    0.0      0.0      0.0   -9.90      1.4      0.8     53      0.1      0.1   100      1.5     0.8      55     16.1    0.30      8      0      0      0      0     0.9     0.9      0     0.02      0.1      0.1      0.1   100    17.7     0.005    -9.9    0.000    0.000      99        0.00    0.000    0.000     252.7     89.2    0.30    54.7     123.0      66.0      59.9      47.4      40.3      30.0    0.010     0.000     0.000     0.038     0.037    0.30     0.05    0.14      0   -9.90   -9.00       10.7       22.0       22.0       22.0       22.0       22.0       22.0       22.0       22.0       22.0       22.0       22.0        0.1        0.0        0.0        0.0        0.0        0.0        0.0        0.0        0.0        0.0        0.0        0.0      0.0       4.5      18.3      23.4      28.5    363.88
    20     1  1997    12     2     252.0     0.0      0.0    0.0    0.0    0.0      0.0      0.0   -9.90      1.6      0.6     36      0.1      0.1   100      1.7     0.7      39     15.8    0.30     12      0      0      0      0     1.0     1.0      0     0.02      0.1      0.1      0.1   100    17.7     0.009    -9.9    0.000    0.000      98        0.00    0.000    0.000     252.0     88.6    0.30    54.0     123.0      66.0      60.5      47.9      40.7      30.0    0.000     0.000     0.000     0.038     0.037    0.30     0.05    0.14      0   -9.90   -9.00       10.0       22.0       22.0       22.0       22.0       22.0       22.0       22.0       22.0       22.0       22.0       22.0        0.1        0.1        0.0        0.0        0.0        0.0        0.0        0.0        0.0        0.0        0.0        0.0      0.0       4.9      17.6      24.0      30.3    363.88
    21     1  1997    13     2     252.2     0.0      1.0    0.0    1.0    0.0      0.0      0.0   -9.90      1.5      0.7     49      0.1      0.1   100      1.6     0.8      52     15.7    0.30     10      0      0      0      0     1.2     1.2      0     0.02      0.1      0.1      0.1   100    17.7     0.013    -9.9    0.000    0.000      97        0.00    0.000    0.000     252.2     88.7    0.30    54.2     123.0      66.0      60.1      47.6      40.5      30.0    0.010     0.000     0.000     0.048     0.046    0.30     0.06    0.18      0   -9.90   -9.00       10.2       22.0       22.0       22.0       22.0       22.0       22.0       22.0       22.0       22.0       22.0       22.0        0.1        0.1        0.0        0.0        0.0        0.0        0.0        0.0        0.0        0.0        0.0        0.0      0.0       4.7      17.4      23.6      29.9    363.88
    22     1  1997    14     2     251.4     0.0      0.0    0.0    0.0    0.0      0.0      0.0   -9.90      2.0      0.6     32      0.2      0.2   100      2.2     0.8      36     16.8    0.30     22      0      0      0      0     1.4     1.4      0     0.02      0.2      0.2      0.2   100    17.7     0.017    -9.9    0.000    0.000      96        0.00    0.000    0.000     251.4     88.0    0.30    53.4     123.0      66.0      62.3      49.3      41.8      30.0    0.000     0.000     0.000     0.048     0.046    0.30     0.06    0.18      0   -9.90   -9.00        9.5       21.8       22.0       22.0       22.0       22.0       22.0       22.0       22.0       22.0       22.0       22.0        0.1        0.1        0.0        0.0        0.0        0.0        0.0        0.0        0.0        0.0        0.0        0.0      0.0       6.2      19.5      24.6      29.8    363.88
    23     1  1997    15     2     251.4     0.0      1.0    0.0    1.0    0.0      0.0      0.0   -9.90      2.0      0.8     42      0.2      0.2   100      2.1     1.0      47     16.3    0.30     20      0      0      0      0     1.6     1.6      0     0.03      0.2      0.2      0.2   100    17.7     0.022    -9.9    0.000    0.000      94        0.00    0.000    0.000     251.4     88.0    0.30    53.4     123.0      66.0      62.1      49.2      41.7      30.0    0.010     0.000     0.000     0.058     0.055    0.30     0.07    0.21      0   -9.90   -9.00        9.7       21.7       22.0       22.0       22.0       22.0       22.0       22.0       22.0       22.0       22.0       22.0        0.1        0.1        0.0        0.0        0.0        0.0        0.0        0.0        0.0        0.0        0.0        0.0      0.0       6.1      18.6      24.6      30.7    363.88
    24     1  1997    16     2     250.7     0.0      0.0    0.0    0.0    0.0      0.0      0.0   -9.90      1.7      0.5     28      0.2      0.2   100      1.8     0.6      34     16.1    0.30     19      0      0      0      0     1.8     1.8      0     0.03      0.2      0.2      0.2   100    17.7     0.027    -9.9    0.000    0.000      93        0.00    0.000    0.000     250.7     87.3    0.30    53.7     124.7      66.9      61.8      48.9      41.6      30.4    0.000     0.000     0.000     0.058     0.054    0.30     0.07    0.21      0   -9.90   -9.00        9.2       21.5       22.0       22.0       22.0       22.0       22.0       22.0       22.0       22.0       22.0       22.0        0.1        0.1        0.0        0.0        0.0        0.0        0.0        0.0        0.0        0.0        0.0        0.0      0.0       5.2      18.1      24.7      31.3    363.88
    25     1  1997    17     2     250.9     0.0      1.0    0.0    1.0    0.0      0.0      0.0   -9.90      1.6      0.7     43      0.2      0.2   100      1.8     0.9      48     15.6    0.31     15      0      0      0      0     2.0     2.0      0     0.04      0.2      0.2      0.2   100    17.7     0.034    -9.9    0.000    0.000      91        0.00    0.000    0.000     250.9     87.5    0.31    54.9     126.8      68.1      62.5      49.5      42.1      30.9    0.010     0.000     0.000     0.067     0.064    0.31     0.08    0.24      0   -9.90   -9.00        9.6       21.3       22.0       22.0       22.0       22.0       22.0       22.0       22.0       22.0       22.0       22.0        0.1        0.1        0.0        0.0        0.0        0.0        0.0        0.0        0.0        0.0        0.0        0.0      0.0       5.0      17.1      24.6      32.1    363.88
    26     1  1997    18     2     250.2     0.0      0.0    0.0    0.0    0.0      0.0      0.0   -9.90      1.7      0.4     26      0.2      0.2   100      1.9     0.7      34     16.2    0.31     20      0      0      0      0     2.3     2.3      0     0.04      0.2      0.2      0.2   100    17.7     0.041    -9.9    0.000    0.000      89        0.00    0.000    0.000     250.2     86.8    0.31    55.4     128.9      69.2      64.0      50.7      43.1      31.4    0.000     0.000     0.000     0.067     0.063    0.31     0.08    0.23      0   -9.90   -9.00        9.1       21.1       22.0       22.0       22.0       22.0       22.0       22.0       22.0       22.0       22.0       22.0        0.1        0.1        0.0        0.0        0.0        0.0        0.0        0.0        0.0        0.0        0.0        0.0      0.0       5.3      18.4      25.6      32.8    363.88
    27     1  1997    19     2     250.3     0.0      1.0    0.0    1.0    0.0      0.0      0.0   -9.90      1.7      0.7     40      0.3      0.3   100      2.0     0.9      47     15.8    0.32     18      0      0      0      0     2.6     2.6      0     0.05      0.3      0.3      0.3   100    17.7     0.049    -9.9    0.000    0.000      88        0.00    0.000    0.000     250.3     86.9    0.32    56.5     130.9      70.3      65.2      51.6      43.9      31.9    0.010     0.000     0.000     0.077     0.072    0.32     0.09    0.26      0   -9.90   -9.00        9.4       20.9       22.0       22.0       22.0       22.0       22.0       22.0       22.0       22.0       22.0       22.0        0.1        0.1        0.0        0.0        0.0        0.0        0.0        0.0        0.0        0.0        0.0        0.0      0.0       5.5      17.6      25.2      32.8    363.88
    28     1  1997    20     2     249.5     0.0      0.0    0.0    0.0    0.0      0.0      0.0   -9.90      1.8      0.4     24      0.3      0.3   100      2.1     0.7      35     16.9    0.32     24      0      0      0      0     3.0     3.0      0     0.05      0.3      0.3      0.3   100    17.7     0.059    -9.9    0.000    0.000      86        0.00    0.000    0.000     249.5     86.1    0.32    56.8     132.9      71.3      66.7      52.8      44.8      32.4    0.000     0.000     0.000     0.077     0.071    0.32     0.08    0.25      0   -9.90   -9.00        9.0       20.5       22.0       22.0       22.0       22.0       22.0       22.0       22.0       22.0       22.0       22.0        0.1        0.1        0.0        0.0        0.0        0.0        0.0        0.0        0.0        0.0        0.0        0.0      0.0       5.8      19.8      26.0      32.1    363.88
    29     1  1997    21     2     249.6     0.0      1.0    0.0    1.0    0.0      0.0      0.0   -9.90      1.7      0.6     38      0.3      0.3   100      2.0     1.0      48     16.9    0.33     19      0      0      0      0     3.4     3.4      0     0.06      0.3      0.3      0.3   100    17.7     0.069    -9.9    0.000    0.000      84        0.00    0.000    0.000     249.6     86.2    0.33    57.9     134.8      72.3      67.0      53.1      45.1      32.9    0.010     0.000     0.000     0.086     0.080    0.33     0.09    0.28      0   -9.90   -9.00        9.3       20.2       22.0       22.0       22.0       22.0       22.0       22.0       22.0       22.0       22.0       22.0        0.1        0.1        0.1        0.0        0.0        0.0        0.0        0.0        0.0        0.0        0.0        0.0      0.0       5.4      19.7      25.6      31.5    363.88
    30     1  1997    22     2     248.9     0.0      0.0    0.0    0.0    0.0      0.0      0.0   -9.90      1.4      0.3     22      0.3      0.3   100      1.7     0.6      36     16.6    0.33     18      0      0      0      0     3.8     3.8      0     0.07      0.3      0.3      0.3   100    17.7     0.081    -9.9    0.000    0.000      82        0.00    0.000    0.000     248.9     85.5    0.33    58.3     136.7      73.4      66.8      52.9      45.0      33.3    0.000     0.000     0.000     0.086     0.080    0.33     0.09    0.27      0   -9.90   -9.00        9.0       19.9       22.0       22.0       22.0       22.0       22.0       22.0       22.0       22.0       22.0       22.0        0.1        0.1        0.1        0.0        0.0        0.0        0.0        0.0        0.0        0.0        0.0        0.0      0.0       4.6      19.3      24.5      29.6    363.88
    31     1  1997    23     2     249.1     0.0      1.0    0.0    1.0    0.0      0.0      0.0   -9.90      1.2      0.5     42      0.3      0.3   100      1.6     0.8      54     16.5    0.34     13      0      0      0      0     4.4     4.4      0     0.08      0.3      0.3      0.3   100    17.7     0.095    -9.9    0.000    0.000      80        0.00    0.000    0.000     249.1     85.7    0.34    59.5     138.6      74.4      66.9      53.0      45.1      33.8    0.010     0.000     0.000     0.096     0.089    0.34     0.10    0.30      0   -9.90   -9.00        9.5       19.6       22.0       22.0       22.0       22.0       22.0       22.0       22.0       22.0       22.0       22.0        0.1        0.1        0.1        0.0        0.0        0.0        0.0        0.0        0.0        0.0        0.0        0.0      0.0       4.1      19.0      23.6      28.3    363.88
     1     2  1997    24     2     248.4     0.0      0.0    0.0    0.0    0.0      0.0      0.0   -9.90      1.4      0.3     21      0.4      0.4   100      1.8     0.7      39     16.5    0.34     19      0      0      0      0     5.0     5.0      0     0.09      0.4      0.4      0.4   100    17.7     0.111    -9.9    0.000    0.000      78        0.00    0.000    0.000     248.4     85.0    0.34    59.7     140.4      75.3      68.8      54.5      46.3      34.2    0.000     0.000     0.000     0.096     0.088    0.34     0.10    0.29      0   -9.90   -9.00        9.2       19.2       22.0       22.0       22.0       22.0       22.0       22.0       22.0       22.0       22.0       22.0        0.1        0.1        0.1        0.0        0.0        0.0        0.0        0.0        0.0        0.0        0.0        0.0      0.0       4.7      19.0      24.6      30.2    363.88
     2     2  1997    25     2     248.2     0.0      1.0    0.0    1.0    0.0      0.0      0.0   -9.90      1.7      0.6     36      0.6      0.6   100      2.3     1.2      52     17.1    0.35     23      0      0      0      0     5.7     5.7      0     0.10      0.6      0.6      0.6   100    17.7     0.128    -9.9    0.000    0.000      77        0.00    0.000    0.000     248.2     84.8    0.35    60.5     142.2      76.3      71.1      56.4      47.8      34.7    0.010     0.000     0.000     0.106     0.097    0.35     0.11    0.31      0   -9.90   -9.00        9.6       18.6       22.0       22.0       22.0       22.0       22.0       22.0       22.0       22.0       22.0       22.0        0.1        0.1        0.1        0.0        0.0        0.0        0.0        0.0        0.0        0.0        0.0        0.0      0.0       5.7      20.1      27.2      34.3    363.88
     3     2  1997    26     2     247.4     0.0      0.0    0.0    0.0    0.0      0.0      0.0   -9.90      1.4      0.3     19      0.5      0.5   100      2.0     0.8      42     17.1    0.35     22      0      0      0      0     6.4     6.4      0     0.11      0.5      0.5      0.5   100    17.7     0.148    -9.9    0.000    0.000      75        0.00    0.000    0.000     247.4     84.0    0.35    60.6     144.0      77.2      70.7      56.0      47.6      35.1    0.000     0.000     0.000     0.106     0.096    0.35     0.10    0.31      0   -9.90   -9.00        9.3       18.1       22.0       22.0       22.0       22.0       22.0       22.0       22.0       22.0       22.0       22.0        0.1        0.1        0.1        0.0        0.0        0.0        0.0        0.0        0.0        0.0        0.0        0.0      0.0       4.9      20.2      26.9      33.6    363.88
     4     2  1997    27     2     247.1     0.0      1.0    0.0    1.0    0.0      0.0      0.0   -9.90      1.6      0.6     35      0.7      0.7   100      2.3     1.3      55     17.9    0.36     25      0      0      0      0     7.3     7.3      0     0.13      0.7      0.7      0.7   100    17.7     0.171    -9.9    0.000    0.000      73        0.00    0.000    0.000     247.1     83.7    0.36    61.3     145.7      78.2      72.6      57.5      48.8      35.5    0.010     0.000     0.000     0.115     0.105    0.36     0.11    0.33      0   -9.90   -9.00        9.7       17.4       22.0       22.0       22.0       22.0       22.0       22.0       22.0       22.0       22.0       22.0        0.2        0.1        0.1        0.0        0.0        0.0        0.0        0.0        0.0        0.0        0.0        0.0      0.0       5.5      21.8      27.0      32.3    363.88
     5     2  1997    28     2     246.1     0.0      0.0    0.0    0.0    0.0      0.0      0.0   -9.90      1.5      0.3     17      0.8      0.8   100      2.3     1.0      45     17.6    0.36     30      0      0      0      0     8.1     8.1      0     0.14      0.8      0.8      0.8   100    17.7     0.196    -9.9    0.000    0.000      71        0.00    0.000    0.000     246.1     82.7    0.36    61.2     147.4      79.1      73.2      58.0      49.3      36.0    0.000     0.000     0.000     0.115     0.105    0.36     0.11    0.33      0   -9.90   -9.00        9.5       16.6       22.0       22.0       22.0       22.0       22.0       22.0       22.0       22.0       22.0       22.0        0.1        0.1        0.1        0.0        0.0        0.0        0.0        0.0        0.0        0.0        0.0        0.0      0.0       5.4      21.2      26.6      32.1    363.88
     6     2  1997    29     2     245.6     0.0      1.0    0.0    1.0    0.0      0.0      0.0   -9.90      1.7      0.5     33      0.9      0.9   100      2.6     1.5      57     17.8    0.36     33      0      0      0      0     9.1     9.1      0     0.16      0.9      0.9      0.9   100    17.7     0.223    -9.9    0.000    0.000      69        0.00    0.000    0.000     245.6     82.2    0.36    61.7     149.1      80.0      74.9      59.3      50.3      36.4    0.010     0.000     0.000     0.125     0.114    0.36     0.12    0.36      0   -9.90   -9.00        9.9       15.7       22.0       22.0       22.0       22.0       22.0       22.0       22.0       22.0       22.0       22.0        0.2        0.1        0.1        0.0        0.0        0.0        0.0        0.0        0.0        0.0        0.0        0.0      0.0       5.9      21.5      27.0      32.5    363.88
     7     2  1997    30     2     244.4     0.0      0.0    0.0    0.0    0.0      0.0      0.0   -9.90      1.6      0.2     15      1.0      1.0   100      2.6     1.2      47     17.5    0.37     42      0      0      0      0     9.9     9.9      0     0.17      1.0      1.0      1.0   100    17.7     0.253    -9.9    0.000    0.000      67        0.00    0.000    0.000     244.4     81.0    0.37    61.3     150.8      80.9      75.7      60.0      50.9      36.8    0.000     0.000     0.000     0.125     0.113    0.37     0.12    0.36      0   -9.90   -9.00        9.7       14.7       22.0       22.0       22.0       22.0       22.0       22.0       22.0       22.0       22.0       22.0        0.2        0.1        0.1        0.0        0.0        0.0        0.0        0.0        0.0        0.0        0.0        0.0      0.0       5.8      21.0      26.6      32.3    363.88
     8     2  1997    31     2     243.8     0.0      1.0    0.0    1.0    0.0      0.0      0.0   -9.90      1.6      0.5     31      1.1      1.1   100      2.7     1.6      59     16.4    0.37     41      0      0      0      0    10.9    10.9      0     0.19      1.1      1.1      1.1   100    17.7     0.286    -9.9    0.000    0.000      65        0.00    0.000    0.000     243.8     80.4    0.37    61.6     152.4      81.8      76.4      60.5      51.4      37.2    0.010     0.000     0.000     0.134     0.122    0.37     0.13    0.39      0   -9.90   -9.00        9.7       14.1       22.0       22.0       22.0       22.0       22.0       22.0       22.0       22.0       22.0       22.0        0.2        0.1        0.1        0.0        0.0        0.0        0.0        0.0        0.0        0.0        0.0        0.0      0.0       5.8      18.7      24.9      31.2    363.88
     9     2  1997    32     2     242.4     0.0      0.0    0.0    0.0    0.0      0.0      0.0   -9.90      1.7      0.2     12      1.2      1.2   100      2.9     1.4      49     17.1    0.38     59      0      0      0      0    11.7    11.7      0     0.20      1.2      1.2      1.2   100    17.7     0.321    -9.9    0.000    0.000      62        0.00    0.000    0.000     242.4     79.0    0.38    61.1     154.1      82.7      78.0      61.8      52.4      37.6    0.000     0.000     0.000     0.134     0.121    0.38     0.12    0.39      0   -9.90   -9.00        9.5       12.9       22.0       22.0       22.0       22.0       22.0       22.0       22.0       22.0       22.0       22.0        0.2        0.1        0.1        0.1        0.0        0.0        0.0        0.0        0.0        0.0        0.0        0.0      0.0       6.2      20.3      25.6      31.0    363.88
    10     2  1997    33     2     241.7     0.0      1.0    0.0    1.0    0.0      0.0      0.0   -9.90      1.6      0.4     28      1.2      1.2   100      2.8     1.7      60     16.2    0.38     57      0      0      0      0    12.5    12.5      0     0.21      1.2      1.2      1.2   100    17.7     0.358    -9.9    0.000    0.000      60        0.00    0.000    0.000     241.7     78.3    0.38    61.3     155.7      83.5      78.3      62.0      52.6      38.0    0.010     0.000     0.000     0.144     0.130    0.38     0.13    0.42      0   -9.90   -9.00        9.9       11.9       22.0       22.0       22.0       22.0       22.0       22.0       22.0       22.0       22.0       22.0        0.2        0.1        0.1        0.1        0.0        0.0        0.0        0.0        0.0        0.0        0.0        0.0      0.0       6.0      18.4      24.8      31.1    363.88
    11     2  1997    34     2     240.4     0.0      0.0    0.0    0.0    0.0      0.0      0.0   -9.90      1.4      0.1      9      1.2      1.2   100      2.6     1.3      51     16.0    0.38     63      0      0      0      0    13.2    13.2      0     0.22      1.2      1.2      1.2   100    17.7     0.397    -9.9    0.000    0.000      57        0.00    0.000    0.000     240.4     77.0    0.38    60.8     157.3      84.4      78.0      61.8      52.5      38.4    0.000     0.000     0.000     0.144     0.130    0.38     0.13    0.43      0   -9.90   -9.00        9.7       10.7       22.0       22.0       22.0       22.0       22.0       22.0       22.0       22.0       22.0       22.0        0.2        0.1        0.1        0.1        0.0        0.0        0.0        0.0        0.0        0.0        0.0        0.0      0.0       5.3      18.0      24.8      31.6    363.88
    12     2  1997    35     2     239.7     0.0      1.0    0.0    1.0    0.0      0.0      0.0   -9.90      1.6      0.4     26      1.4      1.3    94      3.0     1.8      58     16.9    0.39     79      6      0      0      0    13.7    13.7      0     0.23      1.4      1.3      1.3    94    17.7     0.436    -9.9    0.000    0.000      55        0.00    0.000    0.000     239.7     76.2    0.39    60.9     158.8      85.2      80.4      63.7      54.0      38.7    0.010     0.000     0.000     0.154     0.139    0.39     0.14    0.46      0   -9.90   -9.00        9.6       10.0       22.0       22.0       22.0       22.0       22.0       22.0       22.0       22.0       22.0       22.0        0.2        0.1        0.1        0.1        0.0        0.0        0.0        0.0        0.0        0.0        0.0        0.0      0.0       6.2      19.9      25.9      31.9    363.88
    13     2  1997    36     2     238.2     0.0      0.0    0.0    0.0    0.0      0.0      0.0   -9.90      1.7      0.1      7      1.5      1.3    87      3.2     1.4      44     17.4    0.39    100     13      0      0      0    13.7    13.7      0     0.23      1.5      1.3      1.3    87    17.7     0.471    -9.9    0.000    0.000      52        0.00    0.000    0.000     238.2     74.8    0.39    60.3     160.4      86.1      81.9      64.9      54.9      39.1    0.000     0.000     0.000     0.154     0.138    0.39     0.13    0.46      0   -9.90   -9.00        9.5       10.0       20.8       22.0       22.0       22.0       22.0       22.0       22.0       22.0       22.0       22.0        0.2        0.1        0.1        0.1        0.0        0.0        0.0        0.0        0.0        0.0        0.0        0.0      0.0       6.6      20.7      26.9      33.1    363.88
    14     2  1997    37     2     237.6     0.0      1.0    0.0    1.0    0.0      0.0      0.0   -9.90      1.6      0.4     25      1.4      1.2    88      3.0     1.6      54     17.1    0.39    100     12      0      0      0    13.7    13.7      0     0.23      1.4      1.2      1.2    88    17.7     0.506    -9.9    0.000    0.000      49        0.00    0.000    0.000     237.6     74.2    0.39    60.5     161.9      86.9      81.9      64.9      55.0      39.5    0.010     0.000     0.000     0.163     0.147    0.39     0.14    0.48      0   -9.90   -9.00        9.9       10.0       19.7       22.0       22.0       22.0       22.0       22.0       22.0       22.0       22.0       22.0        0.2        0.1        0.1        0.1        0.0        0.0        0.0        0.0        0.0        0.0        0.0        0.0      0.0       6.2      20.2      26.5      32.8    363.88
    15     2  1997    38     2     236.4     0.0      0.0    0.0    0.0    0.0      0.0      0.0   -9.90      1.3      0.1      7      1.2      1.0    88      2.5     1.1      45     16.9    0.40    100     12      0      0      0    13.7    13.7      0     0.23      1.2      1.0      1.0    88    17.7     0.542    -9.9    0.000    0.000      47        0.00    0.000    0.000     236.4     73.0    0.40    60.1     163.4      87.7      80.9      64.0      54.4      39.9    0.000     0.000     0.000     0.163     0.147    0.40     0.14    0.47      0   -9.90   -9.00        9.8       10.0       18.7       22.0       22.0       22.0       22.0       22.0       22.0       22.0       22.0       22.0        0.2        0.1        0.1        0.1        0.0        0.0        0.0        0.0        0.0        0.0        0.0        0.0      0.0       5.2      19.8      27.2      34.6    363.88
    16     2  1997    39     2     236.0     0.0      1.0    0.0    1.0    0.0      0.0      0.0   -9.90      1.3      0.4     29      1.2      1.0    88      2.5     1.4      56     16.9    0.40    100     12      0      0      0    13.7    13.7      0     0.23      1.2      1.0      1.0    88    17.7     0.578    -9.9    0.000    0.000      45        0.00    0.000    0.000     236.0     72.6    0.40    60.5     164.9      88.5      81.6      64.6      54.9      40.2    0.010     0.000     0.000     0.173     0.155    0.40     0.15    0.51      0   -9.90   -9.00        9.5       10.0       18.5       22.0       22.0       22.0       22.0       22.0       22.0       22.0       22.0       22.0        0.2        0.1        0.1        0.1        0.0        0.0        0.0        0.0        0.0        0.0        0.0        0.0      0.0       5.2      19.8      26.7      33.6    363.88
    17     2  1997    40     2     234.9     0.0      0.0    0.0    0.0    0.0      0.0      0.0   -9.90      1.5      0.1      6      1.3      1.1    81      2.8     1.2      41     17.4    0.41    100     19      0      0      0    13.7    13.7      0     0.23      1.3      1.1      1.1    81    17.7     0.610    -9.9    0.000    0.000      43        0.00    0.000    0.000     234.9     71.4    0.41    60.2     166.4      89.3      83.5      66.1      56.1      40.6    0.000     0.000     0.000     0.173     0.155    0.41     0.15    0.50      0   -9.90   -9.00        9.4       10.0       17.5       22.0       22.0       22.0       22.0       22.0       22.0       22.0       22.0       22.0        0.2        0.1        0.1        0.1        0.0        0.0        0.0        0.0        0.0        0.0        0.0        0.0      0.0       5.8      20.8      27.9      35.0    363.88
    18     2  1997    41     2     234.3     0.0      1.0    0.0    1.0    0.0      0.0      0.0   -9.90      1.6      0.4     25      1.4      1.1    78      3.0     1.5      50     16.8    0.41    100     22      0      0      0    13.7    13.7      0     0.23      1.4      1.1      1.1    78    17.7     0.642    -9.9    0.000    0.000      41        0.00    0.000    0.000     234.3     70.9    0.41    60.4     167.9      90.1      84.9      67.2      57.0      41.0    0.010     0.000     0.000     0.182     0.163    0.41     0.15    0.52      0   -9.90   -9.00       10.0       10.0       16.4       22.0       22.0       22.0       22.0       22.0       22.0       22.0       22.0       22.0        0.2        0.1        0.1        0.1        0.0        0.0        0.0        0.0        0.0        0.0        0.0        0.0      0.0       6.2      19.5      25.9      32.4    363.88
    19     2  1997    42     2     233.3     0.0      0.0    0.0    0.0    0.0      0.0      0.0   -9.90      1.4      0.1      7      1.3      1.0    77      2.7     1.1      40     17.2    0.41    100     23      0      0      0    13.7    13.7      0     0.23      1.3      1.0      1.0    77    17.7     0.674    -9.9    0.000    0.000      39        0.00    0.000    0.000     233.3     69.8    0.41    60.1     169.4      90.9      84.6      67.0      56.9      41.3    0.000     0.000     0.000     0.182     0.162    0.41     0.15    0.52      0   -9.90   -9.00        9.9       10.0       15.4       22.0       22.0       22.0       22.0       22.0       22.0       22.0       22.0       22.0        0.2        0.1        0.1        0.1        0.0        0.0        0.0        0.0        0.0        0.0        0.0        0.0      0.0       5.6      20.4      26.0      31.6    363.88
    20     2  1997    43     2     233.1     0.1      1.0    0.0    1.1    0.0      0.0      0.0   -9.90      1.1      0.4     36      1.0      0.8    83      2.1     1.2      58     16.7    0.42    100     17      0      0      0    13.7    13.7      0     0.23      1.0      0.8      0.8    83    17.7     0.707    -9.9    0.000    0.000      38        0.00    0.000    0.000     233.1     69.7    0.42    60.8     170.8      91.7      82.8      65.6      55.8      41.7    0.010     0.000     0.000     0.192     0.171    0.42     0.16    0.54      0   -9.90   -9.00        9.8       10.0       15.4       22.0       22.0       22.0       22.0       22.0       22.0       22.0       22.0       22.0        0.3        0.2        0.1        0.1        0.0        0.0        0.0        0.0        0.0        0.0        0.0        0.0      0.1       4.3      19.4      24.1      28.9    363.88
    21     2  1997    44     2     232.4     0.2      0.0    0.0    0.2    0.0      0.0      0.0   -9.90      1.2      0.1     12      1.0      0.8    80      2.2     1.0      44     17.3    0.42    100     20      0      0      0    13.7    13.7      0     0.23      1.0      0.8      0.8    80    17.7     0.740    -9.9    0.000    0.000      37        0.00    0.000    0.000     232.4     69.0    0.42    60.8     172.2      92.4      83.9      66.4      56.5      42.0    0.000     0.000     0.000     0.192     0.170    0.42     0.15    0.53      0   -9.90   -9.00        9.8       10.0       14.6       22.0       22.0       22.0       22.0       22.0       22.0       22.0       22.0       22.0        0.2        0.2        0.1        0.1        0.1        0.0        0.0        0.0        0.0        0.0        0.0        0.0      0.2       4.5      20.6      24.7      28.8    363.88
    22     2  1997    45     2     231.3     0.0      0.0    0.0    0.0    0.0      0.0      0.0   -9.90      1.4      0.1      7      1.3      0.9    73      2.7     1.0      38     16.4    0.42    100     27      0      0      0    13.7    13.7      0     0.23      1.3      0.9      0.9    73    17.7     0.769    -9.9    0.000    0.000      36        0.00    0.000    0.000     231.3     67.9    0.42    60.5     173.7      93.2      86.7      68.7      58.3      42.4    0.000     0.000     0.000     0.192     0.169    0.42     0.15    0.53      0   -9.90   -9.00        9.7       10.0       13.7       22.0       22.0       22.0       22.0       22.0       22.0       22.0       22.0       22.0        0.2        0.2        0.1        0.1        0.1        0.0        0.0        0.0        0.0        0.0        0.0        0.0      0.0       5.6      18.8      24.6      30.3    363.88
    23     2  1997    46     2     230.1     0.0      0.0    0.0    0.0    0.0      0.0      0.0   -9.90      1.9      0.1      7      1.7      1.1    63      3.6     1.2      33     16.9    0.43    100     37      0      0      0    13.7    13.7      0     0.23      1.7      1.1      1.1    63    17.7     0.795    -9.9    0.000    0.000      34        0.00    0.000    0.000     230.1     66.7    0.43    60.1     175.1      93.9      90.9      72.0      60.9      42.7    0.000     0.000     0.000     0.192     0.168    0.43     0.15    0.53      0   -9.90   -9.00        9.6       10.0       12.6       22.0       22.0       22.0       22.0       22.0       22.0       22.0       22.0       22.0        0.2        0.2        0.1        0.1        0.1        0.0        0.0        0.0        0.0        0.0        0.0        0.0      0.0       7.4      19.7      25.8      31.9    363.88
    24     2  1997    47     2     229.1     0.0      0.0    0.0    0.0    0.0      0.0      0.0   -9.90      1.8      0.1      6      1.6      1.0    61      3.4     1.1      32     16.4    0.43    100     39      0      0      0    13.7    13.7      0     0.23      1.6      1.0      1.0    61    17.7     0.820    -9.9    0.000    0.000      33        0.00    0.000    0.000     229.1     65.6    0.43    59.7     176.5      94.7      90.7      71.9      60.8      43.0    0.000     0.000     0.000     0.192     0.167    0.43     0.15    0.53      0   -9.90   -9.00        9.5       10.0       11.6       22.0       22.0       22.0       22.0       22.0       22.0       22.0       22.0       22.0        0.2        0.2        0.1        0.1        0.1        0.0        0.0        0.0        0.0        0.0        0.0        0.0      0.0       7.0      18.9      26.6      34.4    363.88
    25     2  1997    48     2     228.1     0.0      0.0    0.0    0.0    0.0      0.0      0.0   -9.90      1.5      0.1      6      1.3      0.8    63      2.8     0.9      33     16.3    0.43    100     37      0      0      0    13.7    13.7      0     0.23      1.3      0.8      0.8    63    17.7     0.845    -9.9    0.000    0.000      32        0.00    0.000    0.000     228.1     64.7    0.43    59.6     177.8      95.4      89.0      70.5      64.1      43.4    0.000     0.000     0.000     0.192     0.166    0.43     0.15    0.53      0   -9.90   -9.00        9.4       10.0       10.8       22.0       22.0       22.0       22.0       22.0       22.0       22.0       22.0       22.0        0.2        0.2        0.1        0.1        0.1        0.0        0.0        0.0        0.0        0.0        0.0        0.0      0.0       5.7      18.6      26.8      34.9    363.88
    26     2  1997    49     3     227.2     0.0      0.0    0.0    0.0    0.0      0.0      0.0   -9.90      1.6      0.1      6      1.4      0.8    59      3.0     0.9      31     17.5    0.44    100     41      0      0      0    13.7    13.7      0     0.23      1.4      0.8      0.8    59    17.7     0.869    -9.9    0.000    0.000      31        0.00    0.000    0.000     227.2     63.8    0.44    59.4     179.2      96.1      90.5      71.6      65.0      43.7    0.000     0.000     0.000     0.192     0.165    0.44     0.14    0.53      0   -9.90   -9.00        9.3       10.0       10.0       22.0       22.0       22.0       22.0       22.0       22.0       22.0       22.0       22.0        0.2        0.2        0.1        0.1        0.1        0.0        0.0        0.0        0.0        0.0        0.0        0.0      0.0       6.1      21.0      27.6      34.1    363.88
    27     2  1997    50     3     227.0     0.0      1.0    0.0    1.0    0.0      0.0      0.0   -9.90      1.6      0.4     24      1.4      0.8    59      3.1     1.2      41     18.3    0.44    100     41      0      0      0    13.7    13.7      0     0.23      1.4      0.8      0.8    59    17.7     0.893    -9.9    0.000    0.000      30        0.00    0.000    0.000     227.0     63.6    0.44    59.8     180.5      96.9      91.5      72.5      65.7      44.0    0.010     0.000     0.000     0.202     0.173    0.44     0.15    0.54      0   -9.90   -9.00        9.9       10.0       10.0       21.2       22.0       22.0       22.0       22.0       22.0       22.0       22.0       22.0        0.2        0.2        0.1        0.1        0.1        0.0        0.0        0.0        0.0        0.0        0.0        0.0      0.0       6.3      22.6      28.9      35.3    363.88
    28     2  1997    51     3     226.1     0.0      0.0    0.0    0.0    0.0      0.0      0.0   -9.90      1.6      0.1      7      1.4      0.8    57      2.9     0.9      31     18.3    0.44    100     43      1      0      0    13.7    13.7      0     0.23      1.4      0.8      0.8    57    17.7     0.916    -9.9    0.000    0.000      30        0.00    0.000    0.000     226.1     62.7    0.44    59.7     181.8      97.6      91.6      72.6      65.9      44.4    0.000     0.000     0.000     0.202     0.172    0.44     0.15    0.54      0   -9.90   -9.00        9.8       10.0       10.0       20.4       22.0       22.0       22.0       22.0       22.0       22.0       22.0       22.0        0.2        0.2        0.1        0.1        0.1        0.0        0.0        0.0        0.0        0.0        0.0        0.0      0.0       6.0      22.6      28.6      34.5    363.88
     1     3  1997    52     3     225.3     0.0      0.0    0.0    0.0    0.0      0.0      0.0   -9.90      1.4      0.1      7      1.3      0.7    56      2.7     0.8      30     18.6    0.45    100     44      1      0      0    13.7    13.7      0     0.23      1.3      0.7      0.7    56    17.7     0.939     1.4    0.013    0.264      29        0.02    0.000    0.000     225.3     61.9    0.45    59.6     183.2      98.3      91.4      72.4      65.9      44.7    0.000     0.000     0.000     0.202     0.171    0.45     0.15    0.53      0   -9.90   -9.00        9.7       10.0       10.0       19.7       22.0       22.0       22.0       22.0       22.0       22.0       22.0       22.0        0.2        0.2        0.1        0.1        0.1        0.0        0.0        0.0        0.0        0.0        0.0        0.0      0.0       5.6      23.2      28.6      34.0    363.88
     2     3  1997    53     3     224.6     0.0      0.0    0.0    0.0    0.0      0.0      0.0   -9.90      1.2      0.1      7      1.0      0.6    58      2.2     0.7      31     18.1    0.45    100     42      0      0      0    13.7    13.7      0     0.23      1.0      0.6      0.6    58    17.7     0.962     1.6    0.015    0.310      28        0.02    0.000    0.000     224.6     61.2    0.45    59.6     184.5      99.0      89.9      71.2      65.2      45.0    0.000     0.000     0.000     0.202     0.170    0.45     0.14    0.52      0   -9.90   -9.00        9.6       10.0       10.0       19.1       22.0       22.0       22.0       22.0       22.0       22.0       22.0       22.0        0.2        0.2        0.1        0.1        0.1        0.0        0.0        0.0        0.0        0.0        0.0        0.0      0.0       4.5      22.2      26.2      30.2    363.88
     3     3  1997    54     3     224.1     0.2      0.0    0.0    0.2    0.0      0.0      0.0   -9.90      1.2      0.1     11      1.1      0.6    56      2.3     0.7      32     17.4    0.45    100     44      1      0      0    13.7    13.7      0     0.23      1.1      0.6      0.6    56    17.7     0.985     1.8    0.018    0.363      28        0.03    0.000    0.000     224.1     60.6    0.45    59.7     185.8      99.7      91.1      72.1      65.9      45.3    0.000     0.000     0.000     0.202     0.169    0.45     0.14    0.52      0   -9.90   -9.00        9.7       10.0       10.0       18.4       22.0       22.0       22.0       22.0       22.0       22.0       22.0       22.0        0.2        0.2        0.1        0.1        0.1        0.0        0.0        0.0        0.0        0.0        0.0        0.0      0.2       4.8      20.7      24.4      28.1    363.88
     4     3  1997    55     3     223.3     0.0      0.0    0.0    0.0    0.0      0.0      0.0   -9.90      1.4      0.1      7      1.3      0.7    52      2.7     0.7      28     16.1    0.46    100     48      3      0      0    13.7    13.7      0     0.23      1.3      0.7      0.7    52    17.7     1.006     2.1    0.021    0.423      27        0.03    0.000    0.000     223.3     59.9    0.46    59.7     187.1     100.4      93.2      73.8      67.2      45.6    0.000     0.000     0.000     0.202     0.168    0.46     0.14    0.51      0   -9.90   -9.00        9.6       10.0       10.0       17.8       22.0       22.0       22.0       22.0       22.0       22.0       22.0       22.0        0.2        0.2        0.1        0.1        0.1        0.0        0.0        0.0        0.0        0.0        0.0        0.0      0.0       5.5      18.1      23.3      28.5    363.88
     5     3  1997    56     3     222.5     0.0      0.0    0.0    0.0    0.0      0.0      0.0   -9.90      1.6      0.1      6      1.4      0.7    48      3.0     0.8      26     15.8    0.46    100     52      5      0      0    13.6    13.6      0     0.23      1.4      0.7      0.7    48    17.7     1.025     2.4    0.025    0.491      26        0.04    0.000    0.000     222.5     59.1    0.46    58.9     187.1     100.4      94.5      74.8      67.9      45.6    0.000     0.000     0.000     0.202     0.167    0.46     0.14    0.51      0   -9.90   -9.00        9.5       10.0       10.0       17.1       22.0       22.0       22.0       22.0       22.0       22.0       22.0       22.0        0.2        0.2        0.1        0.1        0.1        0.0        0.0        0.0        0.0        0.0        0.0        0.0      0.0       6.1      17.6      24.1      30.7    363.88
     6     3  1997    57     3     222.4     0.0      1.0    0.0    1.0    0.0      0.0      0.0   -9.90      1.8      0.4     23      1.5      0.7    46      3.3     1.1      34     16.2    0.46    100     54      5      0      0    13.6    13.6      0     0.23      1.5      0.7      0.7    46    17.7     1.044     2.7    0.028    0.568      26        0.04    0.000    0.000     222.4     59.0    0.46    58.8     187.1     100.4      95.9      75.9      68.6      45.6    0.010     0.000     0.000     0.211     0.175    0.46     0.15    0.53      0   -9.90   -9.00        9.9       10.0       10.0       16.6       22.0       22.0       22.0       22.0       22.0       22.0       22.0       22.0        0.2        0.2        0.1        0.1        0.1        0.1        0.0        0.0        0.0        0.0        0.0        0.0      0.0       6.8      18.4      24.8      31.2    363.88
     7     3  1997    58     3     221.6     0.0      0.0    0.0    0.0    0.0      0.0      0.0   -9.90      1.9      0.1      7      1.6      0.7    42      3.5     0.8      24     17.1    0.46    100     58      8      0      0    13.6    13.6      0     0.22      1.6      0.7      0.7    42    17.7     1.061     3.1    0.033    0.656      25        0.05    0.000    0.000     221.6     58.2    0.46    58.0     187.1     100.4      96.6      76.5      69.0      45.6    0.000     0.000     0.000     0.211     0.173    0.46     0.14    0.53      0   -9.90   -9.00        9.8       10.0       10.0       15.9       22.0       22.0       22.0       22.0       22.0       22.0       22.0       22.0        0.2        0.2        0.1        0.1        0.1        0.1        0.0        0.0        0.0        0.0        0.0        0.0      0.0       7.2      20.1      26.4      32.8    363.88
     8     3  1997    59     3     220.8     0.0      0.0    0.0    0.0    0.0      0.0      0.0   -9.90      2.1      0.1      7      1.8      0.7    38      3.9     0.8      21     17.7    0.46    100     62     12      0      0    13.5    13.5      0     0.22      1.8      0.7      0.7    38    17.7     1.076     3.5    0.038    0.753      25        0.06    0.000    0.000     220.8     57.4    0.46    57.1     187.1     100.4      98.6      78.1      70.1      45.6    0.000     0.000     0.000     0.211     0.171    0.46     0.14    0.53      0   -9.90   -9.00        9.6       10.0       10.0       15.2       22.0       22.0       22.0       22.0       22.0       22.0       22.0       22.0        0.2        0.2        0.1        0.1        0.1        0.1        0.0        0.0        0.0        0.0        0.0        0.0      0.0       8.2      21.4      28.3      35.2    363.88
     9     3  1997    60     3     220.0     0.0      0.0    0.0    0.0    0.0      0.0      0.0   -9.90      2.0      0.1      6      1.7      0.6    36      3.7     0.7      20     17.4    0.46    100     64     13      0      0    13.5    13.5      0     0.22      1.7      0.6      0.6    36    17.7     1.090     4.0    0.043    0.864      24        0.06    0.000    0.000     220.0     56.6    0.46    56.4     187.1     100.4      97.7      77.4      69.6      45.6    0.000     0.000     0.000     0.211     0.170    0.46     0.14    0.53      0   -9.90   -9.00        9.5       10.0       10.0       14.6       22.0       22.0       22.0       22.0       22.0       22.0       22.0       22.0        0.2        0.2        0.1        0.1        0.1        0.1        0.0        0.0        0.0        0.0        0.0        0.0      0.0       7.7      20.8      28.0      35.1    363.88
    10     3  1997    61     3     219.4     0.0      0.0    0.0    0.0    0.0      0.0      0.0   -9.90      2.0      0.1      6      1.7      0.6    34      3.6     0.7      19     17.6    0.46    100     66     15      0      0    13.4    13.4      0     0.22      1.7      0.6      0.6    34    17.7     1.103     4.5    0.049    0.989      24        0.07    0.000    0.000     219.4     55.9    0.46    55.7     187.1     100.4      97.4      77.1      69.4      45.6    0.000     0.000     0.000     0.211     0.168    0.46     0.14    0.53      0   -9.90   -9.00        9.4       10.0       10.0       14.0       22.0       22.0       22.0       22.0       22.0       22.0       22.0       22.0        0.2        0.2        0.1        0.1        0.1        0.1        0.0        0.0        0.0        0.0        0.0        0.0      0.0       7.6      21.1      27.0      32.9    363.88
    11     3  1997    62     3     218.7     0.0      0.0    0.0    0.0    0.0      0.0      0.0   -9.90      1.9      0.1      6      1.5      0.5    32      3.4     0.6      18     17.2    0.46    100     68     16      0      0    13.3    13.3      0     0.22      1.5      0.5      0.5    32    17.7     1.115     5.1    0.056    1.130      23        0.08    0.000    0.000     218.7     55.3    0.46    55.1     187.1     100.4      96.5      76.5      69.0      45.6    0.000     0.000     0.000     0.211     0.167    0.46     0.14    0.53      0   -9.90   -9.00        9.3       10.0       10.0       13.5       22.0       22.0       22.0       22.0       22.0       22.0       22.0       22.0        0.2        0.2        0.1        0.1        0.1        0.1        0.0        0.0        0.0        0.0        0.0        0.0      0.0       7.1      20.5      27.6      34.7    363.88
    12     3  1997    63     3     218.2     0.0      0.0    0.0    0.0    0.0      0.0      0.0   -9.90      1.8      0.1      6      1.5      0.5    31      3.4     0.6      17     18.0    0.46    100     69     18      0      0    13.2    13.2      0     0.21      1.5      0.5      0.5    31    17.7     1.127     5.7    0.064    1.287      23        0.09    0.000    0.000     218.2     54.8    0.46    54.5     187.1     100.4      96.4      76.4      68.9      45.6    0.000     0.000     0.000     0.211     0.165    0.46     0.14    0.53      0   -9.90   -9.00        9.2       10.0       10.0       13.1       22.0       22.0       22.0       22.0       22.0       22.0       22.0       22.0        0.2        0.2        0.1        0.1        0.1        0.1        0.0        0.0        0.0        0.0        0.0        0.0      0.0       7.1      22.0      28.5      35.0    363.88
    13     3  1997    64     3     218.4     0.0      1.0    0.0    1.0    0.0      0.0      0.0   -9.90      1.6      0.4     25      1.3      0.4    33      2.8     0.8      28     17.9    0.46    100     67     14      0      0    13.1    13.1      0     0.21      1.3      0.4      0.4    33    17.7     1.139     6.4    0.073    1.467      22        0.10    0.000    0.000     218.4     54.9    0.46    54.7     187.1     100.4      94.3      74.6      67.8      45.6    0.010     0.000     0.000     0.221     0.173    0.46     0.14    0.55      0   -9.90   -9.00        9.8       10.0       10.0       12.6       22.0       22.0       22.0       22.0       22.0       22.0       22.0       22.0        0.2        0.2        0.1        0.1        0.1        0.1        0.0        0.0        0.0        0.0        0.0        0.0      0.0       6.0      21.7      26.6      31.6    363.88
    14     3  1997    65     3     217.9     0.0      0.0    0.0    0.0    0.0      0.0      0.0   -9.90      1.5      0.1      7      1.2      0.4    32      2.6     0.5      18     17.4    0.46    100     68     16      0      0    13.0    13.0      0     0.21      1.2      0.4      0.4    32    17.7     1.151     7.2    0.083    1.669      22        0.12    0.000    0.000     217.9     54.5    0.46    54.3     187.1     100.4      93.4      74.0      67.3      45.6    0.000     0.000     0.000     0.221     0.171    0.46     0.14    0.55      0   -9.90   -9.00        9.7       10.0       10.0       12.3       22.0       22.0       22.0       22.0       22.0       22.0       22.0       22.0        0.2        0.2        0.1        0.1        0.1        0.1        0.0        0.0        0.0        0.0        0.0        0.0      0.0       5.6      20.9      26.0      31.1    363.88
    15     3  1997    66     3     217.5     0.0      0.0    0.0    0.0    0.0      0.0      0.0   -9.90      1.4      0.1      7      1.1      0.3    31      2.4     0.4      17     16.9    0.46    100     69     17      0      0    12.9    12.9      0     0.20      1.1      0.3      0.3    31    17.7     1.162     8.1    0.095    1.893      21        0.13    0.000    0.000     217.5     54.1    0.46    53.8     187.1     100.4      92.5      73.3      66.8      45.6    0.000     0.000     0.000     0.221     0.170    0.46     0.14    0.54      0   -9.90   -9.00        9.6       10.0       10.0       11.9       22.0       22.0       22.0       22.0       22.0       22.0       22.0       22.0        0.2        0.2        0.1        0.1        0.1        0.1        0.0        0.0        0.0        0.0        0.0        0.0      0.0       5.2      19.9      25.0      30.1    363.88
    16     3  1997    67     3     217.1     0.0      0.0    0.0    0.0    0.0      0.0      0.0   -9.90      1.4      0.1      6      1.0      0.3    29      2.4     0.4      16     16.6    0.46    100     71     19      0      0    12.8    12.8      0     0.20      1.0      0.3      0.3    29    17.7     1.173     9.1    0.107    2.140      21        0.15    0.000    0.000     217.1     53.7    0.46    53.4     187.1     100.4      92.6      73.3      66.9      45.6    0.000     0.000     0.000     0.221     0.168    0.46     0.14    0.54      0   -9.90   -9.00        9.5       10.0       10.0       11.6       22.0       22.0       22.0       22.0       22.0       22.0       22.0       22.0        0.2        0.2        0.1        0.1        0.1        0.1        0.0        0.0        0.0        0.0        0.0        0.0      0.0       5.2      19.1      24.8      30.5    363.88
    17     3  1997    68     3     216.7     0.0      0.0    0.0    0.0    0.0      0.0      0.0   -9.90      1.4      0.1      6      1.0      0.3    28      2.4     0.4      16     17.1    0.46    100     72     21      0      0    12.7    12.7      0     0.20      1.0      0.3      0.3    28    17.7     1.182    10.2    0.121    2.410      21        0.17    0.000    0.000     216.7     53.3    0.46    53.1     187.1     100.4      92.7      73.4      66.9      45.6    0.000     0.000     0.000     0.221     0.167    0.46     0.14    0.54      0   -9.90   -9.00        9.4       10.0       10.0       11.3       22.0       22.0       22.0       22.0       22.0       22.0       22.0       22.0        0.2        0.2        0.1        0.1        0.1        0.1        0.0        0.0        0.0        0.0        0.0        0.0      0.0       5.3      20.2      25.9      31.7    363.88
    18     3  1997    69     3     216.4     0.0      0.0    0.0    0.0    0.0      0.0      0.0   -9.90      1.3      0.1      6      1.0      0.3    27      2.3     0.3      15     18.0    0.46    100     73     22      0      0    12.5    12.5      0     0.19      1.0      0.3      0.3    27    17.7     1.191    11.3    0.135    2.694      20        0.19    0.000    0.000     216.4     52.9    0.46    52.7     187.1     100.4      92.4      73.2      66.8      45.6    0.000     0.000     0.000     0.221     0.165    0.46     0.14    0.54      0   -9.90   -9.00        9.3       10.0       10.0       11.1       22.0       22.0       22.0       22.0       22.0       22.0       22.0       22.0        0.2        0.2        0.1        0.1        0.1        0.1        0.0        0.0        0.0        0.0        0.0        0.0      0.0       5.1      22.0      26.8      31.6    363.88
    19     3  1997    70     3     216.0     0.0      0.0    0.0    0.0    0.0      0.0      0.0   -9.90      1.6      0.1      6      1.1      0.3    24      2.7     0.4      14     18.1    0.46    100     76     26      0      0    12.3    12.3      0     0.19      1.1      0.3      0.3    24    17.7     1.200    12.4    0.149    2.974      20        0.20    0.000    0.000     216.0     52.6    0.46    52.4     187.1     100.4      94.1      74.6      67.7      45.6    0.000     0.000     0.000     0.221     0.164    0.46     0.14    0.54      0   -9.90   -9.00        9.2       10.0       10.0       10.8       22.0       22.0       22.0       22.0       22.0       22.0       22.0       22.0        0.2        0.2        0.1        0.1        0.1        0.1        0.0        0.0        0.0        0.0        0.0        0.0      0.0       6.0      22.1      27.7      33.2    363.88
    20     3  1997    71     3     216.2     0.0      1.0    0.0    1.0    0.0      0.0      0.0   -9.90      2.2      0.4     20      1.5      0.3    22      3.7     0.8      21     17.6    0.46    100     78     29      0      0    12.1    12.1      0     0.18      1.5      0.3      0.3    22    17.7     1.207    13.5    0.163    3.253      19        0.22    0.000    0.000     216.2     52.8    0.46    52.6     187.1     100.4      98.9      78.3      70.2      45.6    0.010     0.000     0.000     0.230     0.172    0.46     0.14    0.56      0   -9.90   -9.00        9.8       10.0       10.0       10.5       22.0       22.0       22.0       22.0       22.0       22.0       22.0       22.0        0.2        0.2        0.1        0.1        0.1        0.1        0.0        0.0        0.0        0.0        0.0        0.0      0.0       8.3      21.3      29.7      38.1    363.88
    21     3  1997    72     3     215.8     0.0      0.0    0.0    0.0    0.0      0.0      0.0   -9.90      2.0      0.1      7      1.3      0.3    22      3.3     0.4      13     18.2    0.46    100     78     31      0      0    11.9    11.9      0     0.17      1.3      0.3      0.3    22    17.7     1.213    14.5    0.177    3.531      19        0.24    0.000    0.000     215.8     52.4    0.46    52.2     187.1     100.4      97.3      77.1      69.4      45.6    0.000     0.000     0.000     0.230     0.170    0.46     0.14    0.56      0   -9.90   -9.00        9.7       10.0       10.0       10.2       22.0       22.0       22.0       22.0       22.0       22.0       22.0       22.0        0.2        0.2        0.1        0.1        0.1        0.1        0.0        0.0        0.0        0.0        0.0        0.0      0.0       7.5      22.4      30.1      37.9    363.88
    22     3  1997    73     3     215.5     0.0      0.0    0.0    0.0    0.0      0.0      0.0   -9.90      1.5      0.1      7      1.0      0.2    23      2.5     0.3      13     18.1    0.46    100     77     29      0      0    11.7    11.7      0     0.17      1.0      0.2      0.2    23    17.7     1.220    15.6    0.191    3.813      19        0.26    0.000    0.000     215.5     52.1    0.46    51.9     187.1     100.4      93.7      74.2      67.5      45.6    0.000     0.000     0.000     0.230     0.169    0.46     0.14    0.55      0   -9.90   -9.00        9.6       10.0       10.0       10.0       21.9       22.0       22.0       22.0       22.0       22.0       22.0       22.0        0.2        0.2        0.1        0.1        0.1        0.1        0.0        0.0        0.0        0.0        0.0        0.0      0.0       5.7      22.2      28.0      33.9    363.88
    23     3  1997    74     3     215.2     0.0      0.0    0.0    0.0    0.0      0.0      0.0   -9.90      1.5      0.1      6      0.9      0.2    22      2.5     0.3      12     17.4    0.46    100     78     31      0      0    11.4    11.4      0     0.16      0.9      0.2      0.2    22    17.7     1.226    16.7    0.205    4.093      18        0.27    0.000    0.000     215.2     51.9    0.46    51.6     187.1     100.4      93.7      74.2      67.5      45.6    0.000     0.000     0.000     0.230     0.167    0.46     0.14    0.55      0   -9.90   -9.00        9.5       10.0       10.0       10.0       21.8       22.0       22.0       22.0       22.0       22.0       22.0       22.0        0.2        0.2        0.1        0.1        0.1        0.1        0.0        0.0        0.0        0.0        0.0        0.0      0.0       5.7      20.8      27.0      33.3    363.88
    24     3  1997    75     3     214.9     0.0      0.0    0.0    0.0    0.0      0.0      0.0   -9.90      1.4      0.1      6      0.8      0.2    21      2.2     0.3      12     17.7    0.46    100     79     31      0      0    11.1    11.1      0     0.15      0.8      0.2      0.2    21    17.7     1.232    17.7    0.219    4.374      18        0.29    0.000    0.000     214.9     51.7    0.46    51.5     187.1     100.4      92.8      73.5      67.0      45.6    0.000     0.000     0.000     0.230     0.166    0.46     0.14    0.55      0   -9.90   -9.00        9.4       10.0       10.0       10.0       21.6       22.0       22.0       22.0       22.0       22.0       22.0       22.0        0.2        0.2        0.1        0.1        0.1        0.1        0.1        0.0        0.0        0.0        0.0        0.0      0.0       5.3      21.4      26.6      31.9    363.88
    25     3  1997    76     3     214.7     0.0      0.0    0.0    0.0    0.0      0.0      0.0   -9.90      1.5      0.1      6      0.8      0.2    20      2.3     0.3      11     18.1    0.46    100     80     33      0      0    10.8    10.8      0     0.14      0.8      0.2      0.2    20    17.7     1.237    18.8    0.233    4.652      18        0.31    0.000    0.000     214.7     51.5    0.46    51.3     187.1     100.4      93.4      74.0      67.3      45.6    0.000     0.000     0.000     0.230     0.165    0.46     0.14    0.54      0   -9.90   -9.00        9.3       10.0       10.0       10.0       21.4       22.0       22.0       22.0       22.0       22.0       22.0       22.0        0.2        0.2        0.1        0.1        0.1        0.1        0.1        0.0        0.0        0.0        0.0        0.0      0.0       5.6      22.3      27.5      32.6    363.88
    26     3  1997    77     3     214.4     0.0      0.0    0.0    0.0    0.0      0.0      0.0   -9.90      1.6      0.1      6      0.8      0.2    19      2.4     0.2      10     17.6    0.46    100     81     35      0      0    10.4    10.4      0     0.13      0.8      0.2      0.2    19    17.7     1.242    19.8    0.246    4.928      17        0.33    0.000    0.000     214.4     51.3    0.46    51.1     187.1     100.4      93.9      74.4      67.6      45.6    0.000     0.000     0.000     0.230     0.163    0.46     0.14    0.54      0   -9.90   -9.00        9.2       10.0       10.0       10.0       21.3       22.0       22.0       22.0       22.0       22.0       22.0       22.0        0.2        0.2        0.1        0.1        0.1        0.1        0.1        0.0        0.0        0.0        0.0        0.0      0.0       5.8      21.3      27.8      34.3    363.88
    27     3  1997    78     3     214.9     0.0      1.0    0.0    1.0    0.0      0.0      0.0   -9.90      1.4      0.4     26      0.7      0.1    22      2.1     0.5      25     18.1    0.46    100     78     28      0      0    10.1    10.1      0     0.13      0.7      0.1      0.1    22    17.7     1.247    20.9    0.261    5.211      17        0.34    0.000    0.000     214.9     51.8    0.46    51.6     187.1     100.4      92.7      73.4      66.9      45.6    0.010     0.000     0.000     0.240     0.172    0.46     0.14    0.56      0   -9.90   -9.00        9.8       10.0       10.0       10.0       21.1       22.0       22.0       22.0       22.0       22.0       22.0       22.0        0.2        0.2        0.1        0.1        0.1        0.1        0.1        0.0        0.0        0.0        0.0        0.0      0.0       5.2      22.2      27.7      33.2    363.88
    28     3  1997    79     3     214.7     0.0      0.0    0.0    0.0    0.0      0.0      0.0   -9.90      1.4      0.1      7      0.6      0.1    22      1.9     0.2      11     18.4    0.46    100     78     30      0      0     9.6     9.6      0     0.12      0.6      0.1      0.1    22    17.7     1.251    22.0    0.275    5.494      17        0.36    0.000    0.000     214.7     51.7    0.46    51.5     187.1     100.4      92.0      72.9      66.6      45.6    0.000     0.000     0.000     0.240     0.170    0.46     0.14    0.56      0   -9.90   -9.00        9.7       10.0       10.0       10.0       21.0       22.0       22.0       22.0       22.0       22.0       22.0       22.0        0.2        0.2        0.1        0.1        0.1        0.1        0.1        0.0        0.0        0.0        0.0        0.0      0.0       4.9      22.8      28.0      33.1    363.88
    29     3  1997    80     3     214.4     0.0      0.0    0.0    0.0    0.0      0.0      0.0   -9.90      1.6      0.1      7      0.6      0.1    20      2.2     0.2      10     18.7    0.46    100     80     33      0      0     9.2     9.2      0     0.10      0.6      0.1      0.1    20    17.7     1.255    23.0    0.289    5.771      16        0.38    0.000    0.000     214.4     51.5    0.46    51.3     187.1     100.4      93.7      74.2      67.5      45.6    0.000     0.000     0.000     0.240     0.169    0.46     0.14    0.56      0   -9.90   -9.00        9.6       10.0       10.0       10.0       20.9       22.0       22.0       22.0       22.0       22.0       22.0       22.0        0.2        0.2        0.1        0.1        0.1        0.1        0.1        0.0        0.0        0.0        0.0        0.0      0.0       5.7      23.4      29.1      34.8    363.88
    30     3  1997    81     3     214.2     0.0      0.0    0.0    0.0    0.0      0.0      0.0   -9.90      1.7      0.1      6      0.6      0.1    19      2.3     0.2      10     18.8    0.46     -9     81     36      0      0     8.6     8.6      0     0.09      0.6      0.1      0.1    19    17.7     1.258    24.0    0.302    6.045      16        0.39    0.000    0.000     214.2     51.3    0.46    51.1     187.1     100.4      94.5      74.8      67.9      45.6    0.000     0.000     0.000     0.240     0.168    0.46     0.14    0.55      0   -9.90   -9.00        9.5       10.0       10.0       10.0       20.8       22.0       22.0       22.0       22.0       22.0       22.0       22.0        0.2        0.2        0.1        0.1        0.1        0.1        0.1        0.0        0.0        0.0        0.0        0.0      0.0       6.1      23.6      28.9      34.3    363.88
    31     3  1997    82     3     214.0     0.0      0.0    0.0    0.0    0.0      0.0      0.0   -9.90      2.0      0.1      6      0.6      0.1    18      2.5     0.2       9     18.9    0.46     -9     82     39      0      0     8.0     8.0      0     0.08      0.6      0.1      0.1    18    17.7     1.261    25.0    0.316    6.314      16        0.41    0.000    0.000     214.0     51.1    0.46    50.9     187.1     100.4      96.2      76.2      68.8      45.6    0.000     0.000     0.000     0.240     0.166    0.46     0.14    0.55      0   -9.90   -9.00        9.4       10.0       10.0       10.0       20.7       22.0       22.0       22.0       22.0       22.0       22.0       22.0        0.2        0.2        0.1        0.1        0.1        0.1        0.1        0.0        0.0        0.0        0.0        0.0      0.0       7.0      23.7      29.0      34.2    363.88
     1     4  1997    83     3     213.8     0.0      0.0    0.0    0.0    0.0      0.0      0.0   -9.90      1.7      0.1      6      0.4      0.1    18      2.2     0.2       8     19.2    0.46     -9     82     38      0      0     7.4     7.4      0     0.07      0.4      0.1      0.1    18    17.7     1.263    26.1    0.329    6.582      16        0.43    0.000    0.000     213.8     51.0    0.46    50.8     187.1     100.4      94.4      74.8      67.8      45.6    0.000     0.000     0.000     0.240     0.165    0.46     0.14    0.55      0   -9.90   -9.00        9.3       10.0       10.0       10.0       20.6       22.0       22.0       22.0       22.0       22.0       22.0       22.0        0.2        0.2        0.1        0.1        0.1        0.1        0.1        0.0        0.0        0.0        0.0        0.0      0.0       6.1      24.5      29.2      33.9    363.88
     2     4  1997    84     3     213.7     0.0      0.0    0.0    0.0    0.0      0.0      0.0   -9.90      1.6      0.1      6      0.3      0.1    18      2.0     0.2       8     17.7    0.46     -9     82     38      0      0     6.7     6.7      0     0.06      0.3      0.1      0.1    18    17.7     1.265    27.1    0.342    6.848      15        0.44    0.000    0.000     213.7     50.9    0.46    50.7     187.1     100.4      93.8      74.3      67.5      45.6    0.000     0.000     0.000     0.240     0.164    0.46     0.14    0.55      0   -9.90   -9.00        9.2       10.0       10.0       10.0       20.5       22.0       22.0       22.0       22.0       22.0       22.0       22.0        0.2        0.2        0.1        0.1        0.1        0.1        0.1        0.0        0.0        0.0        0.0        0.0      0.0       5.8      21.4      27.3      33.3    363.88
     3     4  1997    85     3     214.2     0.0      1.0    0.0    1.0    0.0      0.0      0.0   -9.90      1.6      0.4     24      0.3      0.1    20      1.9     0.4      24     17.8    0.46     -9     80     32      0      0     5.9     5.9      0     0.04      0.3      0.1      0.1    20    17.7     1.266    28.1    0.356    7.117      15        0.46    0.000    0.000     214.2     51.4    0.46    51.2     187.1     100.4      93.6      74.1      67.4      45.6    0.010     0.000     0.000     0.250     0.172    0.46     0.14    0.56      0   -9.90   -9.00        9.8       10.0       10.0       10.0       20.5       22.0       22.0       22.0       22.0       22.0       22.0       22.0        0.2        0.2        0.1        0.1        0.1        0.1        0.1        0.0        0.0        0.0        0.0        0.0      0.0       5.7      21.6      27.6      33.5    363.88
     4     4  1997    -9     0     213.8     0.0      0.0    0.0    0.0    0.0      0.0      0.0   -9.90      6.1      0.4      7      0.0      0.0   100      6.1     0.4       7     18.1    0.46     -9     -9     32      0     -9     0.0     0.0      0    -9.00      0.0      0.0      0.0   100    17.7     1.266    28.9    0.366    7.322      15        0.47    0.000    0.000     213.8     51.0    0.46    50.8     187.1     100.4      93.6      74.7      67.4      45.6    0.000     0.000     0.000     0.250     0.171    0.46     0.14    0.57      0   -9.90   -9.00        9.4       10.0       10.0       10.0       20.5       22.0       22.0       22.0       22.0       22.0       22.0       22.0        0.2        0.2        0.1        0.1        0.1        0.1        0.1        0.0        0.0        0.0        0.0        0.0      0.0       6.1      22.3      27.6      33.0    363.88
