AquaCrop 7.2 (August 2024) - Output created on (date) : 08-12-2024   at (time) : 14:51:36

   Day Month  Year   DAP Stage   WC(1.20)   Rain     Irri   Surf   Infilt   RO    Drain       CR    Zgwt       Ex       E     E/Ex     Trx       Tr  Tr/Trx    ETx      ET  ET/ETx      GD       Z     StExp  StSto  StSen StSalt StWeed   CC      CCw     StTr  Kc(Tr)     Trx       Tr      TrW  Tr/Trx   WP    Biomass     HI    Y(dry)  Y(fresh)  Brelative    WPet      Bin     Bout  WC(1.20) Wr(1.00)     Z       Wr    Wr(SAT)    Wr(FC)   Wr(exp)   Wr(sto)   Wr(sen)   Wr(PWP)    SaltIn    SaltOut   SaltUp   Salt(1.20)  SaltZ     Z       ECe    ECsw   StSalt  Zgwt    ECgw       WC01       WC 2       WC 3       WC 4       WC 5       WC 6       WC 7       WC 8       WC 9       WC10       WC11       WC12      ECe01      ECe 2      ECe 3      ECe 4      ECe 5      ECe 6      ECe 7      ECe 8      ECe 9      ECe10      ECe11      ECe12     Rain       ETo      Tmin      Tavg      Tmax      CO2
                                      mm      mm       mm     mm     mm     mm       mm       mm      m        mm       mm     %        mm       mm    %        mm      mm       %  degC-day     m       %      %      %      %      %      %       %       %       -        mm       mm       mm    %     g/m2    ton/ha      %    ton/ha   ton/ha       %       kg/m3   ton/ha   ton/ha      mm       mm       m       mm        mm        mm        mm        mm        mm         mm    ton/ha    ton/ha    ton/ha    ton/ha    ton/ha     m      dS/m    dS/m      %     m      dS/m       0.05       0.15       0.25       0.35       0.45       0.55       0.65       0.75       0.85       0.95       1.05       1.15       0.05       0.15       0.25       0.35       0.45       0.55       0.65       0.75       0.85       0.95       1.05       1.15       mm        mm     degC      degC      degC       ppm
    22     1  1993     1     1     259.9     0.0      0.0    0.0    0.0    0.0      0.0      0.0   -9.90      5.7      4.1     71      0.0      0.0   100      5.7     4.1      71     17.5    0.30     -9     -9     -9      0     -9     0.0     0.0      0    -9.00      0.0      0.0      0.0   100     0.0     0.000    -9.9    0.000    0.000      -9        0.00    0.000    0.000     259.9    215.9    0.30    61.9     123.0      66.0      60.6      48.2      40.8      30.0    0.000     0.000     0.000     0.000     0.000    0.30     0.00    0.00      0   -9.90   -9.00       17.9       22.0       22.0       22.0       22.0       22.0       22.0       22.0       22.0       22.0       22.0       22.0        0.0        0.0        0.0        0.0        0.0        0.0        0.0        0.0        0.0        0.0        0.0        0.0      0.0       5.2      21.0      24.6      28.3    357.21
    23     1  1993     2     1     257.6     0.0      0.0    0.0    0.0    0.0      0.0      0.0   -9.90      5.6      2.4     42      0.0      0.0   100      5.6     2.4      42     17.8    0.30     -9     -9     -9      0     -9     0.0     0.0      0    -9.00      0.0      0.0      0.0   100     0.0     0.000    -9.9    0.000    0.000      -9        0.00    0.000    0.000     257.6    213.6    0.30    59.6     123.0      66.0      60.6      48.1      40.8      30.0    0.000     0.000     0.000     0.000     0.000    0.30     0.00    0.00      0   -9.90   -9.00       15.6       22.0       22.0       22.0       22.0       22.0       22.0       22.0       22.0       22.0       22.0       22.0        0.0        0.0        0.0        0.0        0.0        0.0        0.0        0.0        0.0        0.0        0.0        0.0      0.0       5.1      21.9      24.8      27.7    357.21
    24     1  1993     3     1     255.9     0.0      0.0    0.0    0.0    0.0      0.0      0.0   -9.90      5.6      1.7     30      0.0      0.0   100      5.6     1.7      30     17.3    0.30     -9     -9     -9      0     -9     0.0     0.0      0    -9.00      0.0      0.0      0.0   100     0.0     0.000    -9.9    0.000    0.000      -9        0.00    0.000    0.000     255.9    211.9    0.30    57.9     123.0      66.0      60.6      48.1      40.8      30.0    0.000     0.000     0.000     0.000     0.000    0.30     0.00    0.00      0   -9.90   -9.00       13.9       22.0       22.0       22.0       22.0       22.0       22.0       22.0       22.0       22.0       22.0       22.0        0.0        0.0        0.0        0.0        0.0        0.0        0.0        0.0        0.0        0.0        0.0        0.0      0.0       5.1      20.8      24.3      27.8    357.21
    25     1  1993     4     1     254.7     0.0      0.0    0.0    0.0    0.0      0.0      0.0   -9.90      4.6      1.1     24      0.0      0.0   100      4.6     1.1      24     16.2    0.30     -9     -9     -9      0     -9     0.0     0.0      0    -9.00      0.0      0.0      0.0   100     0.0     0.000    -9.9    0.000    0.000      -9        0.00    0.000    0.000     254.7    210.7    0.30    56.7     123.0      66.0      60.6      47.1      40.8      30.0    0.000     0.000     0.000     0.000     0.000    0.30     0.00    0.00      0   -9.90   -9.00       12.7       22.0       22.0       22.0       22.0       22.0       22.0       22.0       22.0       22.0       22.0       22.0        0.0        0.0        0.0        0.0        0.0        0.0        0.0        0.0        0.0        0.0        0.0        0.0      0.0       4.2      18.7      23.2      27.7    357.21
    26     1  1993     5     2     253.6     0.0      0.0    0.0    0.0    0.0      0.0      0.0   -9.90      5.4      1.1     20      0.1      0.1   100      5.5     1.2      21     17.7    0.33     -9      0      0      0      0     0.8     0.8      0     0.01      0.1      0.1      0.1   100    17.4     0.002    -9.9    0.000    0.000     100        0.00    0.000    0.000     253.6    209.6    0.33    61.4     133.9      71.8      65.9      52.2      44.4      32.6    0.000     0.000     0.000     0.000     0.000    0.33     0.00    0.00      0   -9.90   -9.00       11.6       22.0       22.0       22.0       22.0       22.0       22.0       22.0       22.0       22.0       22.0       22.0        0.0        0.0        0.0        0.0        0.0        0.0        0.0        0.0        0.0        0.0        0.0        0.0      0.0       5.0      21.4      25.4      29.3    357.21
    27     1  1993     6     2     252.6     0.0      0.0    0.0    0.0    0.0      0.0      0.0   -9.90      5.7      0.9     17      0.1      0.1   100      5.8     1.0      18     18.1    0.35      6      0      0      0      0     0.8     0.8      0     0.02      0.1      0.1      0.1   100    17.4     0.005    -9.9    0.000    0.000     100        0.00    0.000    0.000     252.6    208.6    0.35    65.8     143.9      77.2      71.4      56.5      48.0      35.1    0.000     0.000     0.000     0.000     0.000    0.35     0.00    0.00      0   -9.90   -9.00       10.6       22.0       22.0       22.0       22.0       22.0       22.0       22.0       22.0       22.0       22.0       22.0        0.0        0.0        0.0        0.0        0.0        0.0        0.0        0.0        0.0        0.0        0.0        0.0      0.0       5.3      22.1      25.5      28.8    357.21
    28     1  1993     7     2     251.6     0.0      0.0    0.0    0.0    0.0      0.0      0.0   -9.90      6.0      0.8     14      0.1      0.1   100      6.1     0.9      15     17.3    0.37      8      0      0      0      0     0.9     0.9      0     0.02      0.1      0.1      0.1   100    17.4     0.008    -9.9    0.000    0.000      99        0.00    0.000    0.000     251.6    207.6    0.37    69.9     153.2      82.2      76.3      60.5      51.3      37.4    0.000     0.000     0.000     0.000     0.000    0.37     0.00    0.00      0   -9.90   -9.00        9.7       21.9       22.0       22.0       22.0       22.0       22.0       22.0       22.0       22.0       22.0       22.0        0.0        0.0        0.0        0.0        0.0        0.0        0.0        0.0        0.0        0.0        0.0        0.0      0.0       5.5      20.6      24.4      28.1    357.21
    29     1  1993     8     2     251.0     0.0      0.0    0.0    0.0    0.0      0.0      0.0   -9.90      4.8      0.6     12      0.1      0.1   100      4.8     0.7      14     17.2    0.39      5      0      0      0      0     1.1     1.1      0     0.02      0.1      0.1      0.1   100    17.4     0.012    -9.9    0.000    0.000      99        0.00    0.000    0.000     251.0    207.0    0.39    73.8     161.9      86.9      78.7      62.3      53.1      39.5    0.000     0.000     0.000     0.000     0.000    0.39     0.00    0.00      0   -9.90   -9.00        9.2       21.8       22.0       22.0       22.0       22.0       22.0       22.0       22.0       22.0       22.0       22.0        0.0        0.0        0.0        0.0        0.0        0.0        0.0        0.0        0.0        0.0        0.0        0.0      0.0       4.4      20.4      25.4      30.5    357.21
    30     1  1993     9     2     250.3     0.0      0.0    0.0    0.0    0.0      0.0      0.0   -9.90      5.3      0.6     11      0.1      0.1   100      5.4     0.7      13     18.1    0.41      7      0      0      0      0     1.2     1.2      0     0.02      0.1      0.1      0.1   100    17.4     0.016    -9.9    0.000    0.000      98        0.00    0.000    0.000     250.3    206.3    0.41    77.6     170.1      91.3      83.6      66.2      56.3      41.5    0.000     0.000     0.000     0.000     0.000    0.41     0.00    0.00      0   -9.90   -9.00        8.6       21.7       22.0       22.0       22.0       22.0       22.0       22.0       22.0       22.0       22.0       22.0        0.0        0.0        0.0        0.0        0.0        0.0        0.0        0.0        0.0        0.0        0.0        0.0      0.0       4.9      22.3      25.8      29.3    357.21
    31     1  1993    10     2     249.6     0.0      0.0    0.0    0.0    0.0      0.0      0.0   -9.90      5.6      0.5     10      0.1      0.1   100      5.7     0.7      12     17.9    0.43      8      0      0      0      0     1.3     1.3      0     0.03      0.1      0.1      0.1   100    17.4     0.020    -9.9    0.000    0.000      98        0.00    0.000    0.000     249.6    205.6    0.43    81.1     177.9      95.5      88.1      69.7      59.3      43.4    0.000     0.000     0.000     0.000     0.000    0.43     0.00    0.00      0   -9.90   -9.00        8.0       21.6       22.0       22.0       22.0       22.0       22.0       22.0       22.0       22.0       22.0       22.0        0.0        0.0        0.0        0.0        0.0        0.0        0.0        0.0        0.0        0.0        0.0        0.0      0.0       5.2      21.9      25.5      29.1    357.21
     1     2  1993    11     2     249.0     0.0      0.0    0.0    0.0    0.0      0.0      0.0   -9.90      5.6      0.5      9      0.1      0.1   100      5.7     0.6      11     17.4    0.45      8      0      0      0      0     1.5     1.5      0     0.03      0.1      0.1      0.1   100    17.4     0.025    -9.9    0.000    0.000      97        0.00    0.000    0.000     249.0    205.0    0.45    84.5     185.4      99.5      91.8      72.7      61.8      45.2    0.000     0.000     0.000     0.000     0.000    0.45     0.00    0.00      0   -9.90   -9.00        7.6       21.4       22.0       22.0       22.0       22.0       22.0       22.0       22.0       22.0       22.0       22.0        0.0        0.0        0.0        0.0        0.0        0.0        0.0        0.0        0.0        0.0        0.0        0.0      0.0       5.2      20.8      25.5      30.1    357.21
     2     2  1993    12     2     248.5     0.0      0.0    0.0    0.0    0.0      0.0      0.0   -9.90      4.2      0.3      8      0.1      0.1   100      4.3     0.5      11     17.8    0.47      4      0      0      0      0     1.7     1.7      0     0.03      0.1      0.1      0.1   100    17.4     0.031    -9.9    0.000    0.000      97        0.00    0.000    0.000     248.5    204.5    0.47    87.9     192.7     103.4      92.6      73.3      62.5      47.0    0.000     0.000     0.000     0.000     0.000    0.47     0.00    0.00      0   -9.90   -9.00        7.2       21.3       22.0       22.0       22.0       22.0       22.0       22.0       22.0       22.0       22.0       22.0        0.0        0.0        0.0        0.0        0.0        0.0        0.0        0.0        0.0        0.0        0.0        0.0      0.0       3.9      21.6      24.8      27.9    357.21
     3     2  1993    13     2     248.0     0.0      0.0    0.0    0.0    0.0      0.0      0.0   -9.90      5.3      0.4      7      0.2      0.2   100      5.5     0.6      10     18.6    0.49      7      0      0      0      0     1.9     1.9      0     0.04      0.2      0.2      0.2   100    17.4     0.037    -9.9    0.000    0.000      96        0.00    0.000    0.000     248.0    204.0    0.49    91.1     199.6     107.1      98.4      77.9      66.2      48.7    0.000     0.000     0.000     0.000     0.000    0.49     0.00    0.00      0   -9.90   -9.00        6.8       21.1       22.0       22.0       22.0       22.0       22.0       22.0       22.0       22.0       22.0       22.0        0.0        0.0        0.0        0.0        0.0        0.0        0.0        0.0        0.0        0.0        0.0        0.0      0.0       5.0      23.3      26.1      29.0    357.21
     4     2  1993    14     2     247.3     0.0      0.0    0.0    0.0    0.0      0.0      0.0   -9.90      5.9      0.4      7      0.2      0.2   100      6.2     0.6      10     18.1    0.50      9      0      0      0      0     2.1     2.1      0     0.04      0.2      0.2      0.2   100    17.4     0.044    -9.9    0.000    0.000      96        0.00    0.000    0.000     247.3    203.3    0.50    94.1     206.4     110.8     103.1      81.6      69.3      50.3    0.000     0.000     0.000     0.000     0.000    0.50     0.00    0.00      0   -9.90   -9.00        6.4       20.9       22.0       22.0       22.0       22.0       22.0       22.0       22.0       22.0       22.0       22.0        0.0        0.0        0.0        0.0        0.0        0.0        0.0        0.0        0.0        0.0        0.0        0.0      0.0       5.6      22.2      26.3      30.4    357.21
     5     2  1993    15     2     246.7     0.0      0.0    0.0    0.0    0.0      0.0      0.0   -9.90      5.7      0.4      7      0.2      0.2   100      5.9     0.6      10     18.2    0.52      9      0      0      0      0     2.4     2.4      0     0.04      0.2      0.2      0.2   100    17.4     0.051    -9.9    0.000    0.000      95        0.00    0.000    0.000     246.7    202.7    0.52    97.0     213.0     114.3     105.9      83.9      71.2      52.0    0.000     0.000     0.000     0.000     0.000    0.52     0.00    0.00      0   -9.90   -9.00        6.0       20.7       22.0       22.0       22.0       22.0       22.0       22.0       22.0       22.0       22.0       22.0        0.0        0.0        0.0        0.0        0.0        0.0        0.0        0.0        0.0        0.0        0.0        0.0      0.0       5.4      22.4      27.1      31.8    357.21
     6     2  1993    16     2     246.1     0.0      0.0    0.0    0.0    0.0      0.0      0.0   -9.90      5.3      0.3      6      0.2      0.2   100      5.5     0.6      11     18.2    0.54      8      0      0      0      0     2.6     2.6      0     0.05      0.2      0.2      0.2   100    17.4     0.060    -9.9    0.000    0.000      94        0.00    0.000    0.000     246.1    202.1    0.54    99.9     219.4     117.8     108.1      85.6      72.8      53.5    0.000     0.000     0.000     0.000     0.000    0.54     0.00    0.00      0   -9.90   -9.00        5.7       20.4       22.0       22.0       22.0       22.0       22.0       22.0       22.0       22.0       22.0       22.0        0.0        0.0        0.0        0.0        0.0        0.0        0.0        0.0        0.0        0.0        0.0        0.0      0.0       5.0      22.4      27.0      31.7    357.21
     7     2  1993    17     2     245.5     0.0      0.0    0.0    0.0    0.0      0.0      0.0   -9.90      5.6      0.3      6      0.3      0.3   100      5.9     0.6      11     18.4    0.55      9      0      0      0      0     3.0     3.0      0     0.05      0.3      0.3      0.3   100    17.4     0.069    -9.9    0.000    0.000      94        0.00    0.000    0.000     245.5    201.5    0.55   102.6     225.7     121.1     112.2      88.9      75.5      55.1    0.000     0.000     0.000     0.000     0.000    0.55     0.00    0.00      0   -9.90   -9.00        5.3       20.1       22.0       22.0       22.0       22.0       22.0       22.0       22.0       22.0       22.0       22.0        0.0        0.0        0.0        0.0        0.0        0.0        0.0        0.0        0.0        0.0        0.0        0.0      0.0       5.4      22.9      27.6      32.3    357.21
     8     2  1993    18     2     244.9     0.0      0.0    0.0    0.0    0.0      0.0      0.0   -9.90      5.0      0.3      6      0.3      0.3   100      5.3     0.6      11     18.0    0.57      7      0      0      0      0     3.3     3.3      0     0.06      0.3      0.3      0.3   100    17.4     0.080    -9.9    0.000    0.000      93        0.00    0.000    0.000     244.9    200.9    0.57   105.3     231.9     124.4     113.7      90.1      76.6      56.6    0.000     0.000     0.000     0.000     0.000    0.57     0.00    0.00      0   -9.90   -9.00        5.0       19.8       22.0       22.0       22.0       22.0       22.0       22.0       22.0       22.0       22.0       22.0        0.0        0.0        0.0        0.0        0.0        0.0        0.0        0.0        0.0        0.0        0.0        0.0      0.0       4.8      22.0      26.4      30.9    357.21
     9     2  1993    19     2     244.2     0.0      0.0    0.0    0.0    0.0      0.0      0.0   -9.90      5.2      0.3      6      0.3      0.3   100      5.5     0.6      12     18.6    0.58      8      0      0      0      0     3.7     3.7      0     0.07      0.3      0.3      0.3   100    17.4     0.092    -9.9    0.000    0.000      93        0.00    0.000    0.000     244.2    200.2    0.58   107.9     237.9     127.6     117.2      92.8      78.9      58.0    0.000     0.000     0.000     0.000     0.000    0.58     0.00    0.00      0   -9.90   -9.00        5.0       19.2       22.0       22.0       22.0       22.0       22.0       22.0       22.0       22.0       22.0       22.0        0.0        0.0        0.0        0.0        0.0        0.0        0.0        0.0        0.0        0.0        0.0        0.0      0.0       5.0      23.2      27.4      31.6    357.21
    10     2  1993    20     2     243.6     0.0      0.0    0.0    0.0    0.0      0.0      0.0   -9.90      4.9      0.3      5      0.4      0.4   100      5.3     0.6      12     18.1    0.59      8      0      0      0      0     4.2     4.2      0     0.08      0.4      0.4      0.4   100    17.4     0.106    -9.9    0.000    0.000      92        0.00    0.000    0.000     243.6    199.6    0.59   110.4     243.8     130.8     119.6      94.7      80.5      59.5    0.000     0.000     0.000     0.000     0.000    0.59     0.00    0.00      0   -9.90   -9.00        5.0       18.6       22.0       22.0       22.0       22.0       22.0       22.0       22.0       22.0       22.0       22.0        0.0        0.0        0.0        0.0        0.0        0.0        0.0        0.0        0.0        0.0        0.0        0.0      0.0       4.8      22.3      26.9      31.4    357.21
    11     2  1993    21     2     242.9     0.0      0.0    0.0    0.0    0.0      0.0      0.0   -9.90      5.2      0.3      5      0.4      0.4   100      5.6     0.7      13     17.9    0.61      9      0      0      0      0     4.6     4.6      0     0.09      0.4      0.4      0.4   100    17.4     0.120    -9.9    0.000    0.000      91        0.00    0.000    0.000     242.9    198.9    0.61   112.8     249.6     133.9     123.2      97.6      82.9      60.9    0.000     0.000     0.000     0.000     0.000    0.61     0.00    0.00      0   -9.90   -9.00        5.0       17.9       22.0       22.0       22.0       22.0       22.0       22.0       22.0       22.0       22.0       22.0        0.0        0.0        0.0        0.0        0.0        0.0        0.0        0.0        0.0        0.0        0.0        0.0      0.0       5.1      21.9      25.9      30.0    357.21
    12     2  1993    22     2     242.3     0.0      0.0    0.0    0.0    0.0      0.0      0.0   -9.90      4.3      0.2      5      0.4      0.4   100      4.7     0.6      13     18.0    0.62      7      0      0      0      0     5.2     5.2      0     0.10      0.4      0.4      0.4   100    17.4     0.137    -9.9    0.000    0.000      91        0.00    0.000    0.000     242.3    198.3    0.62   115.2     255.2     137.0     123.8      98.1      83.5      62.3    0.000     0.000     0.000     0.000     0.000    0.62     0.00    0.00      0   -9.90   -9.00        5.0       17.3       22.0       22.0       22.0       22.0       22.0       22.0       22.0       22.0       22.0       22.0        0.0        0.0        0.0        0.0        0.0        0.0        0.0        0.0        0.0        0.0        0.0        0.0      0.0       4.3      22.0      25.9      29.8    357.21
    13     2  1993    23     2     241.5     0.0      0.0    0.0    0.0    0.0      0.0      0.0   -9.90      5.1      0.2      5      0.5      0.5   100      5.6     0.8      14     18.5    0.64      9      0      0      0      0     5.8     5.8      0     0.11      0.5      0.5      0.5   100    17.4     0.156    -9.9    0.000    0.000      90        0.00    0.000    0.000     241.5    197.5    0.64   117.5     260.8     140.0     128.8     102.0      86.7      63.6    0.000     0.000     0.000     0.000     0.000    0.64     0.00    0.00      0   -9.90   -9.00        5.0       16.5       22.0       22.0       22.0       22.0       22.0       22.0       22.0       22.0       22.0       22.0        0.0        0.0        0.0        0.0        0.0        0.0        0.0        0.0        0.0        0.0        0.0        0.0      0.0       5.1      23.0      27.5      32.0    357.21
    14     2  1993    24     2     240.7     0.0      0.0    0.0    0.0    0.0      0.0      0.0   -9.90      4.8      0.2      4      0.6      0.6   100      5.4     0.8      15     19.1    0.65      9      0      0      0      0     6.5     6.5      0     0.12      0.6      0.6      0.6   100    17.4     0.176    -9.9    0.000    0.000      89        0.00    0.000    0.000     240.7    196.7    0.65   119.6     266.3     142.9     130.9     103.7      88.2      65.0    0.000     0.000     0.000     0.000     0.000    0.65     0.00    0.00      0   -9.90   -9.00        5.0       15.7       22.0       22.0       22.0       22.0       22.0       22.0       22.0       22.0       22.0       22.0        0.0        0.0        0.0        0.0        0.0        0.0        0.0        0.0        0.0        0.0        0.0        0.0      0.0       4.9      24.1      27.9      31.6    357.21
    15     2  1993    25     2     239.9     0.0      0.0    0.0    0.0    0.0      0.0      0.0   -9.90      4.4      0.2      4      0.6      0.6   100      5.0     0.8      16     18.1    0.66      8      0      0      0      0     7.3     7.3      0     0.13      0.6      0.6      0.6   100    17.4     0.199    -9.9    0.000    0.000      88        0.00    0.000    0.000     239.9    195.9    0.66   121.8     271.8     145.8     132.4     104.9      89.2      66.3    0.000     0.000     0.000     0.000     0.000    0.66     0.00    0.00      0   -9.90   -9.00        5.0       14.9       22.0       22.0       22.0       22.0       22.0       22.0       22.0       22.0       22.0       22.0        0.0        0.0        0.0        0.0        0.0        0.0        0.0        0.0        0.0        0.0        0.0        0.0      0.0       4.5      22.2      26.7      31.2    357.21
    16     2  1993    26     2     239.0     0.0      0.0    0.0    0.0    0.0      0.0      0.0   -9.90      5.1      0.2      4      0.8      0.8   100      5.8     1.0      17     17.9    0.68     12      0      0      0      0     8.1     8.1      0     0.15      0.8      0.8      0.8   100    17.4     0.225    -9.9    0.000    0.000      88        0.00    0.000    0.000     239.0    195.0    0.68   123.7     277.1     148.7     137.4     108.9      92.5      67.6    0.000     0.000     0.000     0.000     0.000    0.68     0.00    0.00      0   -9.90   -9.00        5.0       14.0       22.0       22.0       22.0       22.0       22.0       22.0       22.0       22.0       22.0       22.0        0.0        0.0        0.0        0.0        0.0        0.0        0.0        0.0        0.0        0.0        0.0        0.0      0.0       5.3      21.8      26.9      32.0    357.21
    17     2  1993    27     2     237.9     0.0      0.0    0.0    0.0    0.0      0.0      0.0   -9.90      5.2      0.2      3      0.9      0.9   100      6.1     1.1      18     17.8    0.69     13      0      0      0      0     9.0     9.0      0     0.16      0.9      0.9      0.9   100    17.4     0.253    -9.9    0.000    0.000      87        0.00    0.000    0.000     237.9    193.9    0.69   125.4     282.4     151.5     140.7     111.4      94.6      68.9    0.000     0.000     0.000     0.000     0.000    0.69     0.00    0.00      0   -9.90   -9.00        5.0       12.9       22.0       22.0       22.0       22.0       22.0       22.0       22.0       22.0       22.0       22.0        0.0        0.0        0.0        0.0        0.0        0.0        0.0        0.0        0.0        0.0        0.0        0.0      0.0       5.5      21.6      26.4      31.1    357.21
    18     2  1993    28     2     236.9     0.0      0.0    0.0    0.0    0.0      0.0      0.0   -9.90      4.4      0.1      3      0.9      0.9   100      5.3     1.0      19     17.6    0.70     11      0      0      0      0    10.1    10.1      0     0.18      0.9      0.9      0.9   100    17.4     0.285    -9.9    0.000    0.000      86        0.00    0.000    0.000     236.9    192.9    0.70   127.2     287.6     154.3     141.0     111.7      95.0      70.1    0.000     0.000     0.000     0.000     0.000    0.70     0.00    0.00      0   -9.90   -9.00        5.0       11.9       22.0       22.0       22.0       22.0       22.0       22.0       22.0       22.0       22.0       22.0        0.0        0.0        0.0        0.0        0.0        0.0        0.0        0.0        0.0        0.0        0.0        0.0      0.0       4.8      21.3      25.4      29.4    357.21
    19     2  1993    29     2     235.8     0.0      0.0    0.0    0.0    0.0      0.0      0.0   -9.90      4.3      0.1      3      1.0      1.0   100      5.3     1.1      20     18.9    0.71     12      0      0      0      0    11.2    11.2      0     0.20      1.0      1.0      1.0   100    17.4     0.319    -9.9    0.000    0.000      85        0.00    0.000    0.000     235.8    191.8    0.71   128.9     292.7     157.1     143.6     113.7      96.7      71.4    0.000     0.000     0.000     0.000     0.000    0.71     0.00    0.00      0   -9.90   -9.00        5.0       10.8       22.0       22.0       22.0       22.0       22.0       22.0       22.0       22.0       22.0       22.0        0.0        0.0        0.0        0.0        0.0        0.0        0.0        0.0        0.0        0.0        0.0        0.0      0.0       4.8      23.9      27.3      30.7    357.21
    20     2  1993    30     2     234.6     0.0      0.0    0.0    0.0    0.0      0.0      0.0   -9.90      4.4      0.1      3      1.1      1.1   100      5.5     1.2      22     18.5    0.73     14      0      0      0      0    12.5    12.5      0     0.22      1.1      1.1      1.1   100    17.4     0.358    -9.9    0.000    0.000      85        0.00    0.000    0.000     234.6    190.6    0.73   130.4     297.8     159.8     146.7     116.2      98.8      72.6    0.000     0.000     0.000     0.000     0.000    0.73     0.00    0.00      0   -9.90   -9.00        5.0        9.6       22.0       22.0       22.0       22.0       22.0       22.0       22.0       22.0       22.0       22.0        0.0        0.0        0.0        0.0        0.0        0.0        0.0        0.0        0.0        0.0        0.0        0.0      0.0       5.0      23.0      26.9      30.8    357.21
    21     2  1993    31     2     233.3     0.0      0.0    0.0    0.0    0.0      0.0      0.0   -9.90      4.2      0.1      2      1.2      1.2   100      5.4     1.3      24     19.0    0.74     15      0      0      0      0    13.9    13.9      0     0.24      1.2      1.2      1.2   100    17.4     0.400    -9.9    0.000    0.000      84        0.00    0.000    0.000     233.3    189.3    0.74   131.8     302.8     162.5     148.8     117.9     100.2      73.8    0.000     0.000     0.000     0.000     0.000    0.74     0.00    0.00      0   -9.90   -9.00        5.0        9.5       20.8       22.0       22.0       22.0       22.0       22.0       22.0       22.0       22.0       22.0        0.0        0.0        0.0        0.0        0.0        0.0        0.0        0.0        0.0        0.0        0.0        0.0      0.0       4.9      24.0      27.5      31.0    357.21
    22     2  1993    32     2     231.9     0.0      0.0    0.0    0.0    0.0      0.0      0.0   -9.90      4.2      0.1      2      1.3      1.3   100      5.5     1.4      26     18.2    0.75     17      0      0      0      0    15.4    15.4      0     0.27      1.3      1.3      1.3   100    17.4     0.446    -9.9    0.000    0.000      83        0.00    0.000    0.000     231.9    187.9    0.75   133.0     307.7     165.1     151.6     120.1     102.1      75.1    0.000     0.000     0.000     0.000     0.000    0.75     0.00    0.00      0   -9.90   -9.00        5.0        9.4       19.5       22.0       22.0       22.0       22.0       22.0       22.0       22.0       22.0       22.0        0.0        0.0        0.0        0.0        0.0        0.0        0.0        0.0        0.0        0.0        0.0        0.0      0.0       5.0      22.5      26.3      30.1    357.21
    23     2  1993    33     2     230.5     0.0      0.0    0.0    0.0    0.0      0.0      0.0   -9.90      3.7      0.1      2      1.3      1.3   100      5.1     1.4      28     18.8    0.76     16      0      0      0      0    17.0    17.0      0     0.29      1.3      1.3      1.3   100    17.4     0.497    -9.9    0.000    0.000      82        0.00    0.000    0.000     230.5    186.5    0.76   134.2     312.6     167.8     152.7     120.9     102.9      76.3    0.000     0.000     0.000     0.000     0.000    0.76     0.00    0.00      0   -9.90   -9.00        5.0        9.3       18.1       22.0       22.0       22.0       22.0       22.0       22.0       22.0       22.0       22.0        0.0        0.0        0.0        0.0        0.0        0.0        0.0        0.0        0.0        0.0        0.0        0.0      0.0       4.6      23.6      26.7      29.8    357.21
    24     2  1993    34     2     228.9     0.0      0.0    0.0    0.0    0.0      0.0      0.0   -9.90      3.7      0.1      2      1.5      1.5   100      5.2     1.6      31     17.6    0.77     18      0      0      0      0    18.8    18.8      0     0.32      1.5      1.5      1.5   100    17.4     0.553    -9.9    0.000    0.000      81        0.00    0.000    0.000     228.9    184.9    0.77   135.2     317.5     170.4     155.4     123.1     104.7      77.4    0.000     0.000     0.000     0.000     0.000    0.77     0.00    0.00      0   -9.90   -9.00        5.0        9.3       16.6       22.0       22.0       22.0       22.0       22.0       22.0       22.0       22.0       22.0        0.0        0.0        0.0        0.0        0.0        0.0        0.0        0.0        0.0        0.0        0.0        0.0      0.0       4.7      21.2      25.8      30.4    357.21
    25     2  1993    35     3     227.1     0.0      0.0    0.0    0.0    0.0      0.0      0.0   -9.90      3.7      0.1      2      1.7      1.7   100      5.4     1.8      33     16.4    0.79     22      0      0      0      0    20.7    20.7      0     0.35      1.7      1.7      1.7   100    17.4     0.613    -9.9    0.000    0.000      80        0.00    0.000    0.000     227.1    183.1    0.79   136.0     322.3     172.9     158.4     125.5     106.7      78.6    0.000     0.000     0.000     0.000     0.000    0.79     0.00    0.00      0   -9.90   -9.00        5.0        9.2       14.9       22.0       22.0       22.0       22.0       22.0       22.0       22.0       22.0       22.0        0.0        0.0        0.0        0.0        0.0        0.0        0.0        0.0        0.0        0.0        0.0        0.0      0.0       4.9      18.9      24.1      29.3    357.21
    26     2  1993    36     3     224.8     0.0      0.0    0.0    0.0    0.0      0.0      0.0   -9.90      4.4      0.1      2      2.3      2.3   100      6.7     2.4      35     17.2    0.80     34      0      0      0      0    22.5    22.5      0     0.37      2.3      2.3      2.3   100    17.4     0.678    -9.9    0.000    0.000      79        0.00    0.000    0.000     224.8    180.8    0.80   136.2     327.0     175.5     165.1     130.7     110.9      79.8    0.000     0.000     0.000     0.000     0.000    0.80     0.00    0.00      0   -9.90   -9.00        5.0        9.1       12.7       22.0       22.0       22.0       22.0       22.0       22.0       22.0       22.0       22.0        0.0        0.0        0.0        0.0        0.0        0.0        0.0        0.0        0.0        0.0        0.0        0.0      0.0       6.1      20.5      26.2      31.9    357.21
    27     2  1993    37     3     222.3     0.0      0.0    0.0    0.0    0.0      0.0      0.0   -9.90      4.1      0.1      2      2.4      2.4   100      6.5     2.4      37     17.9    0.81     38      0      0      0      0    24.2    24.2      0     0.40      2.4      2.4      2.4   100    17.4     0.748    -9.9    0.000    0.000      78        0.00    0.000    0.000     222.3    178.3    0.81   136.3     331.7     178.0     166.7     132.0     112.0      80.9    0.000     0.000     0.000     0.000     0.000    0.81     0.00    0.00      0   -9.90   -9.00        5.0        9.0       10.3       22.0       22.0       22.0       22.0       22.0       22.0       22.0       22.0       22.0        0.0        0.0        0.0        0.0        0.0        0.0        0.0        0.0        0.0        0.0        0.0        0.0      0.0       5.9      21.9      26.4      30.9    357.21
    28     2  1993    38     3     219.7     0.0      0.0    0.0    0.0    0.0      0.0      0.0   -9.90      4.1      0.1      1      2.5      2.5   100      6.6     2.6      39     17.9    0.82     46      0      0      0      0    25.9    25.9      0     0.42      2.5      2.5      2.5   100    17.4     0.821     1.5    0.012    0.247      77        0.03    0.000    0.000     219.7    175.7    0.82   136.2     336.4     180.5     169.4     134.2     113.8      82.0    0.000     0.000     0.000     0.000     0.000    0.82     0.00    0.00      0   -9.90   -9.00        5.0        9.0        9.7       20.0       22.0       22.0       22.0       22.0       22.0       22.0       22.0       22.0        0.0        0.0        0.0        0.0        0.0        0.0        0.0        0.0        0.0        0.0        0.0        0.0      0.0       6.0      21.7      26.3      30.9    357.21
     1     3  1993    39     3     217.0     0.0      0.0    0.0    0.0    0.0      0.0      0.0   -9.90      3.9      0.1      1      2.7      2.7   100      6.6     2.7      41     18.8    0.83     54      0      0      0      0    27.4    27.4      0     0.44      2.7      2.7      2.7   100    17.4     0.899     1.7    0.015    0.310      76        0.03    0.000    0.000     217.0    173.0    0.83   136.0     341.0     183.0     171.7     136.0     115.4      83.2    0.000     0.000     0.000     0.000     0.000    0.83     0.00    0.00      0   -9.90   -9.00        5.0        8.9        9.7       17.4       22.0       22.0       22.0       22.0       22.0       22.0       22.0       22.0        0.0        0.0        0.0        0.0        0.0        0.0        0.0        0.0        0.0        0.0        0.0        0.0      0.0       6.0      23.6      26.7      29.8    357.21
     2     3  1993    40     3     214.2     0.0      0.0    0.0    0.0    0.0      0.0      0.0   -9.90      3.9      0.1      1      2.8      2.8   100      6.7     2.9      42     19.4    0.84     65      0      0      0      0    28.6    28.6      0     0.46      2.8      2.8      2.8   100    17.4     0.979     2.0    0.019    0.386      75        0.04    0.000    0.000     214.2    170.2    0.84   135.6     345.6     185.4     174.4     138.2     117.2      84.3    0.000     0.000     0.000     0.000     0.000    0.84     0.00    0.00      0   -9.90   -9.00        5.0        8.9        9.7       14.6       22.0       22.0       22.0       22.0       22.0       22.0       22.0       22.0        0.0        0.0        0.0        0.0        0.0        0.0        0.0        0.0        0.0        0.0        0.0        0.0      0.0       6.1      24.7      27.0      29.4    357.21
     3     3  1993    41     3     211.5     0.0      0.0    0.0    0.0    0.0      0.0      0.0   -9.90      3.6      0.0      1      2.7      2.7    98      6.4     2.7      43     18.6    0.85     72      2      0      0      0    29.6    29.6      0     0.47      2.7      2.7      2.7    98    17.4     1.059     2.3    0.024    0.477      74        0.05    0.000    0.000     211.5    167.5    0.85   135.3     350.1     187.9     175.6     139.1     118.0      85.4    0.000     0.000     0.000     0.000     0.000    0.85     0.00    0.00      0   -9.90   -9.00        5.0        8.8        9.7       11.9       22.0       22.0       22.0       22.0       22.0       22.0       22.0       22.0        0.0        0.0        0.0        0.0        0.0        0.0        0.0        0.0        0.0        0.0        0.0        0.0      0.0       5.8      23.3      26.4      29.5    357.21
     4     3  1993    42     3     208.7     0.0      0.0    0.0    0.0    0.0      0.0      0.0   -9.90      3.9      0.1      1      2.9      2.7    92      6.8     2.8      40     18.8    0.86     93      8      0      0      0    29.7    29.7      0     0.47      2.9      2.7      2.7    92    17.4     1.135     2.6    0.029    0.584      72        0.05    0.000    0.000     208.7    164.7    0.86   135.0     354.6     190.3     179.4     142.1     120.5      86.5    0.000     0.000     0.000     0.000     0.000    0.86     0.00    0.00      0   -9.90   -9.00        5.0        8.8        9.7        9.8       21.4       22.0       22.0       22.0       22.0       22.0       22.0       22.0        0.0        0.0        0.0        0.0        0.0        0.0        0.0        0.0        0.0        0.0        0.0        0.0      0.0       6.2      23.6      27.0      30.3    357.21
     5     3  1993    43     3     264.4     0.0     62.1    0.0   62.1    0.0      0.0      0.0   -9.90      3.3      3.3    100      3.0      3.0   100      6.4     6.4     100     17.6    0.88      0      0      0      0      0    33.6    33.6      0     0.52      3.0      3.0      3.0   100    17.4     1.227     2.9    0.036    0.721      72        0.06    0.000    0.000     264.4    220.4    0.88   193.1     359.0     192.7     180.0     142.6     121.0      87.6    0.000     0.000     0.000     0.000     0.000    0.88     0.00    0.00      0   -9.90   -9.00       34.6       34.9        9.7        9.8       21.4       22.0       22.0       22.0       22.0       22.0       22.0       22.0        0.0        0.0        0.0        0.0        0.0        0.0        0.0        0.0        0.0        0.0        0.0        0.0      0.0       5.8      21.2      26.1      31.1    357.21
     6     3  1993    44     3     258.4     0.0      0.0    0.0    0.0    0.0      0.0      0.0   -9.90      2.9      2.9    100      3.2      3.2   100      6.1     6.1     100     17.6    0.89      0      0      0      0      0    38.0    38.0      0     0.58      3.2      3.2      3.2   100    17.4     1.327     3.4    0.045    0.890      72        0.07    0.000    0.000     258.4    214.4    0.89   189.4     363.5     195.0     181.1     143.4     121.8      88.6    0.000     0.000     0.000     0.000     0.000    0.89     0.00    0.00      0   -9.90   -9.00       16.4       22.4       22.4       21.8       21.4       22.0       22.0       22.0       22.0       22.0       22.0       22.0        0.0        0.0        0.0        0.0        0.0        0.0        0.0        0.0        0.0        0.0        0.0        0.0      0.0       5.5      21.2      25.8      30.4    357.21
     7     3  1993    45     3     252.7     0.0      0.0    0.0    0.0    0.0      0.0      0.0   -9.90      2.5      2.3     89      3.4      3.4   100      5.9     5.7      95     17.9    0.90      0      0      0      0      0    42.2    42.2      0     0.63      3.4      3.4      3.4   100    17.4     1.437     3.8    0.055    1.099      72        0.07    0.000    0.000     252.7    208.7    0.90   186.1     367.8     197.4     182.8     144.8     123.0      89.7    0.000     0.000     0.000     0.000     0.000    0.90     0.00    0.00      0   -9.90   -9.00       10.7       22.0       22.0       22.0       21.9       22.0       22.0       22.0       22.0       22.0       22.0       22.0        0.0        0.0        0.0        0.0        0.0        0.0        0.0        0.0        0.0        0.0        0.0        0.0      0.0       5.4      21.9      26.4      30.8    357.21
     8     3  1993    46     3     248.4     0.0      0.0    0.0    0.0    0.0      0.0      0.0   -9.90      2.3      0.7     32      3.6      3.6   100      5.8     4.3      73     18.4    0.91      0      0      0      0      0    46.0    46.0      0     0.67      3.6      3.6      3.6   100    17.4     1.554     4.4    0.068    1.353      73        0.09    0.000    0.000     248.4    204.4    0.91   184.2     372.2     199.7     184.6     146.2     124.2      90.8    0.000     0.000     0.000     0.000     0.000    0.91     0.00    0.00      0   -9.90   -9.00       10.0       18.5       22.0       22.0       22.0       22.0       22.0       22.0       22.0       22.0       22.0       22.0        0.0        0.0        0.0        0.0        0.0        0.0        0.0        0.0        0.0        0.0        0.0        0.0      0.0       5.3      22.9      26.8      30.7    357.21
     9     3  1993    47     3     244.2     0.0      0.0    0.0    0.0    0.0      0.0      0.0   -9.90      2.1      0.4     19      3.8      3.8   100      5.9     4.2      71     18.4    0.92      0      0      0      0      0    49.4    49.4      0     0.71      3.8      3.8      3.8   100    17.4     1.677     5.0    0.083    1.662      73        0.10    0.000    0.000     244.2    200.2    0.92   182.3     376.5     202.0     187.2     148.2     125.9      91.8    0.000     0.000     0.000     0.000     0.000    0.92     0.00    0.00      0   -9.90   -9.00        9.6       14.6       22.0       22.0       22.0       22.0       22.0       22.0       22.0       22.0       22.0       22.0        0.0        0.0        0.0        0.0        0.0        0.0        0.0        0.0        0.0        0.0        0.0        0.0      0.0       5.4      22.7      27.4      32.0    357.21
    10     3  1993    48     3     239.6     0.0      0.0    0.0    0.0    0.0      0.0      0.0   -9.90      2.2      0.2     11      4.4      4.4   100      6.6     4.7      70     18.4    0.93      3      0      0      0      0    52.2    52.2      0     0.73      4.4      4.4      4.4   100    17.4     1.805     5.6    0.102    2.032      74        0.12    0.000    0.000     239.6    195.6    0.93   179.9     380.8     204.3     191.8     151.9     128.8      92.9    0.000     0.000     0.000     0.000     0.000    0.93     0.00    0.00      0   -9.90   -9.00        9.3       10.3       21.9       22.0       22.0       22.0       22.0       22.0       22.0       22.0       22.0       22.0        0.0        0.0        0.0        0.0        0.0        0.0        0.0        0.0        0.0        0.0        0.0        0.0      0.0       6.0      22.8      27.5      32.2    357.21
    11     3  1993    49     3     234.7     0.0      0.0    0.0    0.0    0.0      0.0      0.0   -9.90      2.1      0.1      6      4.8      4.8   100      6.9     4.9      71     18.6    0.94      7      0      0      0      0    54.7    54.7      0     0.76      4.8      4.8      4.8   100    17.4     1.937     6.4    0.124    2.473      75        0.14    0.000    0.000     234.7    190.7    0.94   177.3     385.1     206.6     195.2     154.6     131.1      93.9    0.000     0.000     0.000     0.000     0.000    0.94     0.00    0.00      0   -9.90   -9.00        9.2        9.6       17.8       22.0       22.0       22.0       22.0       22.0       22.0       22.0       22.0       22.0        0.0        0.0        0.0        0.0        0.0        0.0        0.0        0.0        0.0        0.0        0.0        0.0      0.0       6.3      23.3      28.2      33.2    357.21
    12     3  1993    50     3     230.1     0.0      0.0    0.0    0.0    0.0      0.0      0.0   -9.90      1.8      0.1      5      4.4      4.4   100      6.3     4.5      72     18.6    0.95      9      0      0      0      0    56.8    56.8      0     0.78      4.4      4.4      4.4   100    17.4     2.073     7.2    0.150    2.996      76        0.16    0.000    0.000     230.1    186.1    0.95   175.0     389.3     208.9     194.8     154.3     130.9      94.9    0.000     0.000     0.000     0.000     0.000    0.95     0.00    0.00      0   -9.90   -9.00        9.1        9.6       13.7       21.7       22.0       22.0       22.0       22.0       22.0       22.0       22.0       22.0        0.0        0.0        0.0        0.0        0.0        0.0        0.0        0.0        0.0        0.0        0.0        0.0      0.0       5.7      23.1      27.5      31.8    357.21
    13     3  1993    51     3     225.9     0.0      0.0    0.0    0.0    0.0      0.0      0.0   -9.90      1.6      0.1      5      4.1      4.1   100      5.7     4.2      74     18.9    0.96     11      0      0      0      0    58.7    58.7      0     0.80      4.1      4.1      4.1   100    17.4     2.212     8.2    0.181    3.613      76        0.18    0.000    0.000     225.9    181.9    0.96   173.0     393.5     211.1     194.7     154.2     131.0      96.0    0.000     0.000     0.000     0.000     0.000    0.96     0.00    0.00      0   -9.90   -9.00        9.1        9.6       10.0       21.2       22.0       22.0       22.0       22.0       22.0       22.0       22.0       22.0        0.0        0.0        0.0        0.0        0.0        0.0        0.0        0.0        0.0        0.0        0.0        0.0      0.0       5.2      23.7      27.5      31.3    357.21
    14     3  1993    52     3     221.3     0.0      0.0    0.0    0.0    0.0      0.0      0.0   -9.90      1.6      0.1      5      4.5      4.5   100      6.2     4.6      75     19.4    0.97     18      0      0      0      0    60.2    60.2      0     0.81      4.5      4.5      4.5   100    17.4     2.354     9.2    0.217    4.334      77        0.21    0.000    0.000     221.3    177.3    0.97   170.7     397.7     213.4     198.5     157.2     133.5      97.0    0.000     0.000     0.000     0.000     0.000    0.97     0.00    0.00      0   -9.90   -9.00        9.0        9.6       10.0       17.5       21.1       22.0       22.0       22.0       22.0       22.0       22.0       22.0        0.0        0.0        0.0        0.0        0.0        0.0        0.0        0.0        0.0        0.0        0.0        0.0      0.0       5.6      24.9      28.9      32.9    357.21
    15     3  1993    53     3     216.6     0.0      0.0    0.0    0.0    0.0      0.0      0.0   -9.90      1.5      0.1      5      4.6      4.6   100      6.2     4.7      76     19.9    0.98     25      0      0      0      0    61.5    61.5      0     0.82      4.6      4.6      4.6   100    17.4     2.498    10.4    0.259    5.171      78        0.24    0.000    0.000     216.6    172.6    0.98   168.2     401.8     215.6     200.6     158.9     134.9      98.0    0.000     0.000     0.000     0.000     0.000    0.98     0.00    0.00      0   -9.90   -9.00        8.9        9.6       10.0       13.8       20.2       22.0       22.0       22.0       22.0       22.0       22.0       22.0        0.0        0.0        0.0        0.0        0.0        0.0        0.0        0.0        0.0        0.0        0.0        0.0      0.0       5.6      25.8      28.6      31.4    357.21
    16     3  1993    54     3     213.0     0.0      0.0    0.0    0.0    0.0      0.0      0.0   -9.90      1.1      0.1      5      3.5      3.5   100      4.6     3.6      77     19.7    0.99     23      0      0      0      0    62.7    62.7      0     0.83      3.5      3.5      3.5   100    17.4     2.643    11.6    0.307    6.139      79        0.27    0.000    0.000     213.0    169.0    0.99   166.8     405.9     217.8     196.4     155.6     132.5      99.0    0.000     0.000     0.000     0.000     0.000    0.99     0.00    0.00      0   -9.90   -9.00        8.9        9.6       10.0       10.5       20.1       22.0       22.0       22.0       22.0       22.0       22.0       22.0        0.0        0.0        0.0        0.0        0.0        0.0        0.0        0.0        0.0        0.0        0.0        0.0      0.0       4.2      25.4      27.7      30.0    357.21
    17     3  1993    55     3     209.0     0.0      0.0    0.0    0.0    0.0      0.0      0.0   -9.90      1.2      0.1      5      4.0      4.0   100      5.2     4.0      78     19.7    1.00     33      0      0      0      0    63.6    63.6      0     0.84      4.0      4.0      4.0   100    17.4     2.790    12.9    0.361    7.215      79        0.31    0.000    0.000     209.0    165.0    1.00   165.0     410.0     220.0     200.6     158.9     135.2     100.0    0.000     0.000     0.000     0.000     0.000    1.00     0.00    0.00      0   -9.90   -9.00        8.8        9.6       10.0        9.6       16.9       22.0       22.0       22.0       22.0       22.0       22.0       22.0        0.0        0.0        0.0        0.0        0.0        0.0        0.0        0.0        0.0        0.0        0.0        0.0      0.0       4.7      25.4      27.7      30.0    357.21
    18     3  1993    56     3     216.7    13.8      0.0    0.0   13.8    0.0      0.0      0.0   -9.90      1.4      1.4    100      4.8      4.8   100      6.2     6.2     100     19.2    1.00      0      0      0      0      0    64.9    64.9      0     0.85      4.8      4.8      4.8   100    17.4     2.939    14.2    0.419    8.374      80        0.34    0.000    0.000     216.7    172.7    1.00   172.7     410.0     220.0     204.7     162.1     137.6     100.0    0.000     0.000     0.000     0.000     0.000    1.00     0.00    0.00      0   -9.90   -9.00       16.4        9.6       10.0        9.6       16.9       22.0       22.0       22.0       22.0       22.0       22.0       22.0        0.0        0.0        0.0        0.0        0.0        0.0        0.0        0.0        0.0        0.0        0.0        0.0     13.8       5.6      24.4      27.9      31.3    357.21
    19     3  1993    57     3     211.6     0.0      0.0    0.0    0.0    0.0      0.0      0.0   -9.90      1.1      1.1    100      4.0      4.0   100      5.1     5.1     100     19.2    1.00     25      0      0      0      0    65.8    65.8      0     0.86      4.0      4.0      4.0   100    17.4     3.090    15.6    0.481    9.616      80        0.37    0.000    0.000     211.6    167.6    1.00   167.6     410.0     220.0     200.2     158.6     134.9     100.0    0.000     0.000     0.000     0.000     0.000    1.00     0.00    0.00      0   -9.90   -9.00       11.4        9.6       10.0        9.6       16.9       22.0       22.0       22.0       22.0       22.0       22.0       22.0        0.0        0.0        0.0        0.0        0.0        0.0        0.0        0.0        0.0        0.0        0.0        0.0      0.0       4.6      24.5      27.9      31.3    357.21
    20     3  1993    58     3     206.3     0.0      0.0    0.0    0.0    0.0      0.0      0.0   -9.90      1.1      1.1    100      4.2      4.2   100      5.3     5.3     100     19.0    1.00     38      0      0      0      0    66.4    66.4      0     0.87      4.2      4.2      4.2   100    17.4     3.241    16.9    0.547   10.941      81        0.41    0.000    0.000     206.3    162.3    1.00   162.3     410.0     220.0     201.1     159.3     135.5     100.0    0.000     0.000     0.000     0.000     0.000    1.00     0.00    0.00      0   -9.90   -9.00        9.6        9.6       10.0        9.6       13.7       21.8       22.0       22.0       22.0       22.0       22.0       22.0        0.0        0.0        0.0        0.0        0.0        0.0        0.0        0.0        0.0        0.0        0.0        0.0      0.0       4.8      24.0      28.1      32.2    357.21
    21     3  1993    59     3     264.2     0.0     63.0    0.0   63.0    0.0      0.0      0.0   -9.90      1.0      1.0    100      4.0      4.0   100      5.1     5.1     100     19.0    1.00      0      0      0      0      0    67.4    67.4      0     0.88      4.0      4.0      4.0   100    17.4     3.394    18.2    0.618   12.350      82        0.45    0.000    0.000     264.2    220.2    1.00   220.2     410.0     220.0     200.2     158.6     134.9     100.0    0.000     0.000     0.000     0.000     0.000    1.00     0.00    0.00      0   -9.90   -9.00       35.9       41.0       10.2        9.6       13.7       21.8       22.0       22.0       22.0       22.0       22.0       22.0        0.0        0.0        0.0        0.0        0.0        0.0        0.0        0.0        0.0        0.0        0.0        0.0      0.0       4.6      24.0      28.1      32.3    357.21
    22     3  1993    60     3     259.2     0.0      0.0    0.0    0.0    0.0      0.0      0.0   -9.90      1.0      1.0    100      4.1      4.1   100      5.1     5.1     100     19.2    1.00      0      0      0      0      0    68.2    68.2      0     0.88      4.1      4.1      4.1   100    17.4     3.548    19.5    0.692   13.845      82        0.48    0.000    0.000     259.2    215.2    1.00   215.2     410.0     220.0     200.2     158.6     134.9     100.0    0.000     0.000     0.000     0.000     0.000    1.00     0.00    0.00      0   -9.90   -9.00       17.3       22.0       22.2       22.4       21.5       21.8       22.0       22.0       22.0       22.0       22.0       22.0        0.0        0.0        0.0        0.0        0.0        0.0        0.0        0.0        0.0        0.0        0.0        0.0      0.0       4.6      24.4      28.3      32.3    357.21
    23     3  1993    61     3     253.4     0.0      0.0    0.0    0.0    0.0      0.0      0.0   -9.90      1.1      1.1    100      4.6      4.6   100      5.7     5.7     100     19.1    1.00      0      0      0      0      0    69.0    69.0      0     0.89      4.6      4.6      4.6   100    17.4     3.703    20.8    0.771   15.426      83        0.52    0.000    0.000     253.4    209.4    1.00   209.4     410.0     220.0     202.9     160.7     136.5     100.0    0.000     0.000     0.000     0.000     0.000    1.00     0.00    0.00      0   -9.90   -9.00       11.6       22.0       22.0       22.0       22.0       21.8       22.0       22.0       22.0       22.0       22.0       22.0        0.0        0.0        0.0        0.0        0.0        0.0        0.0        0.0        0.0        0.0        0.0        0.0      0.0       5.2      24.3      27.8      31.2    357.21
    24     3  1993    62     3     248.3     0.0      0.0    0.0    0.0    0.0      0.0      0.0   -9.90      1.0      1.0    100      4.2      4.2   100      5.2     5.2     100     18.9    1.00      0      0      0      0      0    69.7    69.7      0     0.90      4.2      4.2      4.2   100    17.4     3.859    22.1    0.855   17.093      83        0.55    0.000    0.000     248.3    204.3    1.00   204.3     410.0     220.0     200.6     158.9     135.2     100.0    0.000     0.000     0.000     0.000     0.000    1.00     0.00    0.00      0   -9.90   -9.00        9.2       19.3       22.0       22.0       22.0       21.9       22.0       22.0       22.0       22.0       22.0       22.0        0.0        0.0        0.0        0.0        0.0        0.0        0.0        0.0        0.0        0.0        0.0        0.0      0.0       4.7      23.9      27.1      30.4    357.21
    25     3  1993    63     3     243.5     0.0      0.0    0.0    0.0    0.0      0.0      0.0   -9.90      0.9      0.9    100      3.9      3.9   100      4.7     4.7     100     18.3    1.00      0      0      0      0      0    70.3    70.3      0     0.90      3.9      3.9      3.9   100    17.4     4.016    23.5    0.942   18.847      84        0.59    0.000    0.000     243.5    199.5    1.00   199.5     410.0     220.0     198.8     157.5     134.1     100.0    0.000     0.000     0.000     0.000     0.000    1.00     0.00    0.00      0   -9.90   -9.00        8.3       15.4       22.0       22.0       22.0       21.9       22.0       22.0       22.0       22.0       22.0       22.0        0.0        0.0        0.0        0.0        0.0        0.0        0.0        0.0        0.0        0.0        0.0        0.0      0.0       4.3      22.6      26.1      29.7    357.21
    26     3  1993    64     3     237.2     0.0      0.0    0.0    0.0    0.0      0.0      0.0   -9.90      1.1      1.1    100      5.2      5.2   100      6.4     6.4     100     19.1    1.00      2      0      0      0      0    70.8    70.8      0     0.91      5.2      5.2      5.2   100    17.4     4.174    24.8    1.034   20.687      84        0.62    0.000    0.000     237.2    193.2    1.00   193.2     410.0     220.0     205.6     162.8     138.2     100.0    0.000     0.000     0.000     0.000     0.000    1.00     0.00    0.00      0   -9.90   -9.00        7.2       10.8       21.3       22.0       22.0       21.9       22.0       22.0       22.0       22.0       22.0       22.0        0.0        0.0        0.0        0.0        0.0        0.0        0.0        0.0        0.0        0.0        0.0        0.0      0.0       5.8      24.2      27.7      31.2    357.21
    27     3  1993    65     3     231.8     0.0      0.0    0.0    0.0    0.0      0.0      0.0   -9.90      0.9      0.9    100      4.5      4.5   100      5.4     5.4     100     19.4    1.00      4      0      0      0      0    71.2    71.2      0     0.91      4.5      4.5      4.5   100    17.4     4.332    26.1    1.131   22.614      84        0.66    0.000    0.000     231.8    187.8    1.00   187.8     410.0     220.0     201.5     159.6     135.7     100.0    0.000     0.000     0.000     0.000     0.000    1.00     0.00    0.00      0   -9.90   -9.00        6.2        9.1       18.5       22.0       22.0       21.9       22.0       22.0       22.0       22.0       22.0       22.0        0.0        0.0        0.0        0.0        0.0        0.0        0.0        0.0        0.0        0.0        0.0        0.0      0.0       4.9      24.7      27.9      31.0    357.21
    28     3  1993    66     3     226.4     0.0      0.0    0.0    0.0    0.0      0.0      0.0   -9.90      1.1      0.0      3      5.3      5.3   100      6.4     5.3      83     19.6    1.00     10      0      0      0      0    71.6    71.6      0     0.91      5.3      5.3      5.3   100    17.4     4.491    27.4    1.231   24.627      85        0.70    0.000    0.000     226.4    182.4    1.00   182.4     410.0     220.0     205.6     162.8     138.2     100.0    0.000     0.000     0.000     0.000     0.000    1.00     0.00    0.00      0   -9.90   -9.00        6.2        9.1       14.3       20.9       22.0       21.9       22.0       22.0       22.0       22.0       22.0       22.0        0.0        0.0        0.0        0.0        0.0        0.0        0.0        0.0        0.0        0.0        0.0        0.0      0.0       5.8      25.3      29.0      32.6    357.21
    29     3  1993    67     3     221.0     0.0      0.0    0.0    0.0    0.0      0.0      0.0   -9.90      1.1      0.0      3      5.4      5.4   100      6.5     5.4      84     19.1    1.00     17      0      0      0      0    71.9    71.9      0     0.91      5.4      5.4      5.4   100    17.4     4.651    28.7    1.336   26.726      85        0.73    0.000    0.000     221.0    177.0    1.00   177.0     410.0     220.0     206.0     163.2     138.5     100.0    0.000     0.000     0.000     0.000     0.000    1.00     0.00    0.00      0   -9.90   -9.00        6.2        9.1       10.5       19.4       22.0       21.9       22.0       22.0       22.0       22.0       22.0       22.0        0.0        0.0        0.0        0.0        0.0        0.0        0.0        0.0        0.0        0.0        0.0        0.0      0.0       5.9      24.3      28.1      31.8    357.21
    30     3  1993    68     3     215.6     0.0      0.0    0.0    0.0    0.0      0.0      0.0   -9.90      1.1      0.0      2      5.4      5.4   100      6.5     5.4      84     19.2    1.00     26      0      0      0      0    72.2    72.2      0     0.92      5.4      5.4      5.4   100    17.4     4.811    30.0    1.446   28.911      86        0.77    0.000    0.000     215.6    171.6    1.00   171.6     410.0     220.0     206.0     163.2     138.5     100.0    0.000     0.000     0.000     0.000     0.000    1.00     0.00    0.00      0   -9.90   -9.00        6.1        9.1        9.6       15.7       21.2       21.9       22.0       22.0       22.0       22.0       22.0       22.0        0.0        0.0        0.0        0.0        0.0        0.0        0.0        0.0        0.0        0.0        0.0        0.0      0.0       5.9      24.4      28.5      32.6    357.21
    31     3  1993    69     3     209.9     0.0      0.0    0.0    0.0    0.0      0.0      0.0   -9.90      1.1      0.0      2      5.7      5.7   100      6.8     5.7      84     18.4    1.00     41      0      0      0      0    72.3    72.3      0     0.92      5.7      5.7      5.7   100    17.4     4.971    31.4    1.559   31.182      86        0.81    0.000    0.000     209.9    165.9    1.00   165.9     410.0     220.0     207.4     164.3     139.3     100.0    0.000     0.000     0.000     0.000     0.000    1.00     0.00    0.00      0   -9.90   -9.00        6.1        9.1        9.6       12.0       19.2       21.9       22.0       22.0       22.0       22.0       22.0       22.0        0.0        0.0        0.0        0.0        0.0        0.0        0.0        0.0        0.0        0.0        0.0        0.0      0.0       6.2      22.9      28.1      33.4    357.21
     1     4  1993    70     3     264.8     0.0     60.9    0.0   60.9    0.0      0.0      0.0   -9.90      1.0      1.0    100      5.1      5.1   100      6.0     6.0     100     18.9    1.00      0      0      0      0      0    72.6    72.6      0     0.92      5.1      5.1      5.1   100    17.4     5.131    32.7    1.677   33.539      86        0.84    0.000    0.000     264.8    220.8    1.00   220.8     410.0     220.0     204.2     161.8     137.4     100.0    0.000     0.000     0.000     0.000     0.000    1.00     0.00    0.00      0   -9.90   -9.00       35.0       35.2        9.6       12.0       19.2       21.9       22.0       22.0       22.0       22.0       22.0       22.0        0.0        0.0        0.0        0.0        0.0        0.0        0.0        0.0        0.0        0.0        0.0        0.0      0.0       5.5      23.8      28.0      32.2    357.21
     2     4  1993    71     3     258.6     0.0      0.0    0.0    0.0    0.0      0.0      0.0   -9.90      1.0      1.0    100      5.2      5.2   100      6.1     6.1     100     19.2    1.00      0      0      0      0      0    72.9    72.9      0     0.92      5.2      5.2      5.2   100    17.4     5.291    34.0    1.799   35.982      87        0.88    0.000    0.000     258.6    214.6    1.00   214.6     410.0     220.0     204.7     162.1     137.6     100.0    0.000     0.000     0.000     0.000     0.000    1.00     0.00    0.00      0   -9.90   -9.00       16.2       22.4       22.4       22.2       21.5       21.9       22.0       22.0       22.0       22.0       22.0       22.0        0.0        0.0        0.0        0.0        0.0        0.0        0.0        0.0        0.0        0.0        0.0        0.0      0.0       5.6      24.4      28.2      32.0    357.21
     3     4  1993    72     3     251.9     0.0      0.0    0.0    0.0    0.0      0.2      0.0   -9.90      1.0      1.0    100      5.4      5.4   100      6.5     6.5     100     18.8    1.00      0      0      0      0      0    73.1    73.1      0     0.92      5.4      5.4      5.4   100    17.4     5.452    35.3    1.926   38.510      87        0.91    0.000    0.000     251.9    207.9    1.00   207.9     410.0     220.0     206.0     163.2     138.5     100.0    0.000     0.000     0.000     0.000     0.000    1.00     0.00    0.00      0   -9.90   -9.00       10.2       21.6       22.0       22.0       22.0       22.0       22.0       22.0       22.0       22.0       22.0       22.0        0.0        0.0        0.0        0.0        0.0        0.0        0.0        0.0        0.0        0.0        0.0        0.0      0.0       5.9      23.5      27.6      31.8    357.21
     4     4  1993    73     3     245.9     0.0      0.0    0.0    0.0    0.0      0.1      0.0   -9.90      0.9      0.9    100      5.0      5.0   100      5.9     5.9     100     18.7    1.00      0      0      0      0      0    73.3    73.3      0     0.92      5.0      5.0      5.0   100    17.4     5.613    36.6    2.056   41.124      87        0.95    0.000    0.000     245.9    201.9    1.00   201.9     410.0     220.0     203.8     161.4     137.1     100.0    0.000     0.000     0.000     0.000     0.000    1.00     0.00    0.00      0   -9.90   -9.00        9.3       16.9       21.7       22.0       22.0       22.0       22.0       22.0       22.0       22.0       22.0       22.0        0.0        0.0        0.0        0.0        0.0        0.0        0.0        0.0        0.0        0.0        0.0        0.0      0.0       5.4      23.4      27.3      31.2    357.21
     5     4  1993    74     3     239.8     0.0      0.0    0.0    0.0    0.0      0.0      0.0   -9.90      1.0      1.0    100      5.2      5.2   100      6.1     6.1     100     18.9    1.00      1      0      0      0      0    73.5    73.5      0     0.92      5.2      5.2      5.2   100    17.4     5.774    38.0    2.191   43.824      88        0.98    0.000    0.000     239.8    195.8    1.00   195.8     410.0     220.0     204.7     162.1     137.6     100.0    0.000     0.000     0.000     0.000     0.000    1.00     0.00    0.00      0   -9.90   -9.00        8.3       12.2       21.2       22.0       22.0       22.0       22.0       22.0       22.0       22.0       22.0       22.0        0.0        0.0        0.0        0.0        0.0        0.0        0.0        0.0        0.0        0.0        0.0        0.0      0.0       5.6      23.7      26.7      29.7    357.21
     6     4  1993    75     3     233.1     0.0      0.0    0.0    0.0    0.0      0.0      0.0   -9.90      1.0      1.0    100      5.7      5.7   100      6.7     6.7     100     18.8    1.00      5      0      0      0      0    74.7    74.7      0     0.93      5.7      5.7      5.7   100    17.4     5.936    39.3    2.331   46.619      88        1.01    0.000    0.000     233.1    189.1    1.00   189.1     410.0     220.0     206.9     163.9     139.0     100.0    0.000     0.000     0.000     0.000     0.000    1.00     0.00    0.00      0   -9.90   -9.00        7.3        9.0       18.7       22.0       22.0       22.0       22.0       22.0       22.0       22.0       22.0       22.0        0.0        0.0        0.0        0.0        0.0        0.0        0.0        0.0        0.0        0.0        0.0        0.0      0.0       6.1      23.6      28.2      32.7    357.21
     7     4  1993    76     3     226.5     0.0      0.0    0.0    0.0    0.0      0.0      0.0   -9.90      1.0      1.0    100      5.6      5.6   100      6.6     6.6     100     19.7    1.00     -9      0      0      0      0    74.7    74.7      0     0.93      5.6      5.6      5.6   100    17.4     6.098    40.6    2.475   49.500      88        1.04    0.000    0.000     226.5    182.5    1.00   182.5     410.0     220.0     206.5     163.6     138.7     100.0    0.000     0.000     0.000     0.000     0.000    1.00     0.00    0.00      0   -9.90   -9.00        6.4        9.0       14.5       20.6       22.0       22.0       22.0       22.0       22.0       22.0       22.0       22.0        0.0        0.0        0.0        0.0        0.0        0.0        0.0        0.0        0.0        0.0        0.0        0.0      0.0       6.0      25.4      28.2      31.1    357.21
     8     4  1993    77     4     220.5     0.0      0.0    0.0    0.0    0.0      0.0      0.0   -9.90      1.0      0.1     12      5.9      5.9   100      6.9     6.0      87     18.5    1.00     -9      0      0      0      0    74.7    74.7      0     0.93      5.9      5.9      5.9   100    17.4     6.260    41.9    2.623   52.465      88        1.08    0.000    0.000     220.5    176.5    1.00   176.5     410.0     220.0     207.8     164.6     139.5     100.0    0.000     0.000     0.000     0.000     0.000    1.00     0.00    0.00      0   -9.90   -9.00        6.2        9.0       10.6       18.6       22.0       22.0       22.0       22.0       22.0       22.0       22.0       22.0        0.0        0.0        0.0        0.0        0.0        0.0        0.0        0.0        0.0        0.0        0.0        0.0      0.0       6.3      23.0      27.8      32.5    357.21
     9     4  1993    78     4     214.8     0.0      0.0    0.0    0.0    0.0      0.0      0.0   -9.90      1.0      0.0      2      5.8      5.8   100      6.8     5.8      85     18.9    1.00     -9      0      0      0      0    74.8    74.8      0     0.93      5.8      5.8      5.8   100    17.4     6.422    43.2    2.776   55.514      89        1.12    0.000    0.000     214.8    170.8    1.00   170.8     410.0     220.0     207.4     164.3     139.3     100.0    0.000     0.000     0.000     0.000     0.000    1.00     0.00    0.00      0   -9.90   -9.00        6.2        9.0        9.5       14.9       21.1       22.0       22.0       22.0       22.0       22.0       22.0       22.0        0.0        0.0        0.0        0.0        0.0        0.0        0.0        0.0        0.0        0.0        0.0        0.0      0.0       6.2      23.7      27.6      31.6    357.21
    10     4  1993    79     4     209.2     0.0      0.0    0.0    0.0    0.0      0.0      0.0   -9.90      1.0      0.0      2      5.6      5.6   100      6.5     5.6      85     19.1    1.00     -9      0      0      0      0    74.8    74.8      0     0.93      5.6      5.6      5.6   100    17.4     6.584    44.5    2.932   58.647      89        1.15    0.000    0.000     209.2    165.2    1.00   165.2     410.0     220.0     206.5     163.6     138.7     100.0    0.000     0.000     0.000     0.000     0.000    1.00     0.00    0.00      0   -9.90   -9.00        6.2        9.0        9.5       11.4       19.1       22.0       22.0       22.0       22.0       22.0       22.0       22.0        0.0        0.0        0.0        0.0        0.0        0.0        0.0        0.0        0.0        0.0        0.0        0.0      0.0       6.0      24.3      28.5      32.6    357.21
    11     4  1993    80     4     209.9     4.0      0.0    0.0    4.0    0.0      0.0      0.0   -9.90      0.5      0.5    100      2.8      2.8   100      3.3     3.3     100     19.1    1.00     -9      0      0      0      0    74.8    74.8      0     0.93      2.8      2.8      2.8   100    17.4     6.746    45.9    3.093   61.865      89        1.20    0.000    0.000     209.9    165.9    1.00   165.9     410.0     220.0     193.0     152.9     130.5     100.0    0.000     0.000     0.000     0.000     0.000    1.00     0.00    0.00      0   -9.90   -9.00        9.7        9.0        9.5        9.3       18.4       22.0       22.0       22.0       22.0       22.0       22.0       22.0        0.0        0.0        0.0        0.0        0.0        0.0        0.0        0.0        0.0        0.0        0.0        0.0      4.0       3.0      24.6      26.1      27.6    357.21
    12     4  1993    81     4     204.0     0.0      0.0    0.0    0.0    0.0      0.0      0.0   -9.90      0.9      0.9    100      5.0      5.0   100      5.9     5.9     100     19.4    1.00     -9      0      0      0      0    74.8    74.8      0     0.93      5.0      5.0      5.0   100    17.4     6.907    47.2    3.258   65.164      89        1.24    0.000    0.000     204.0    160.0    1.00   160.0     410.0     220.0     203.8     161.4     137.1     100.0    0.000     0.000     0.000     0.000     0.000    1.00     0.00    0.00      0   -9.90   -9.00        8.8        9.0        9.5        9.3       15.2       20.2       22.0       22.0       22.0       22.0       22.0       22.0        0.0        0.0        0.0        0.0        0.0        0.0        0.0        0.0        0.0        0.0        0.0        0.0      0.0       5.4      24.7      28.0      31.3    357.21
    13     4  1993    82     4     263.4     0.0     65.9    0.0   65.9    0.0      0.0      0.0   -9.90      1.0      1.0    100      5.6      5.6   100      6.5     6.5     100     18.0    1.00     -9      0      0      0      0    74.9    74.9      0     0.93      5.6      5.6      5.6   100    17.4     7.069    48.5    3.427   68.549      90        1.27    0.000    0.000     263.4    219.4    1.00   219.3     410.0     220.0     206.5     163.6     138.7     100.0    0.000     0.000     0.000     0.000     0.000    1.00     0.00    0.00      0   -9.90   -9.00       34.9       40.6       11.2        9.3       15.2       20.2       22.0       22.0       22.0       22.0       22.0       22.0        0.0        0.0        0.0        0.0        0.0        0.0        0.0        0.0        0.0        0.0        0.0        0.0      0.0       6.0      22.0      27.1      32.3    357.21
    14     4  1993    83     4     256.7     0.0      0.0    0.0    0.0    0.0      0.0      0.0   -9.90      1.0      1.0    100      5.6      5.6   100      6.6     6.6     100     19.4    1.00     -9      0      0      0      0    74.9    74.9      0     0.93      5.6      5.6      5.6   100    17.4     7.230    49.8    3.601   72.018      90        1.30    0.000    0.000     256.7    212.7    1.00   212.7     410.0     220.0     206.9     163.9     139.0     100.0    0.000     0.000     0.000     0.000     0.000    1.00     0.00    0.00      0   -9.90   -9.00       16.3       21.6       22.3       22.4       22.0       20.2       22.0       22.0       22.0       22.0       22.0       22.0        0.0        0.0        0.0        0.0        0.0        0.0        0.0        0.0        0.0        0.0        0.0        0.0      0.0       6.1      24.9      28.8      32.8    357.21
    15     4  1993    84     4     251.5     0.0      0.0    0.0    0.0    0.0      0.0      0.0   -9.90      0.8      0.8    100      4.4      4.4   100      5.2     5.2     100     19.4    1.00     -9      0      0      0      0    74.9    74.9      0     0.92      4.4      4.4      4.4   100    17.4     7.391    51.1    3.778   75.570      90        1.34    0.000    0.000     251.5    207.5    1.00   207.5     410.0     220.0     201.1     159.3     135.5     100.0    0.000     0.000     0.000     0.000     0.000    1.00     0.00    0.00      0   -9.90   -9.00       11.0       21.6       22.0       22.0       22.0       20.8       22.0       22.0       22.0       22.0       22.0       22.0        0.0        0.0        0.0        0.0        0.0        0.0        0.0        0.0        0.0        0.0        0.0        0.0      0.0       4.8      24.9      28.8      32.6    357.21
    16     4  1993    85     4     244.6     0.0      0.0    0.0    0.0    0.0      0.0      0.0   -9.90      1.0      1.0    100      5.9      5.9   100      6.9     6.9     100     19.8    1.00     -9      0      0      0      0    74.9    74.9      0     0.92      5.9      5.9      5.9   100    17.4     7.552    52.4    3.960   79.205      90        1.37    0.000    0.000     244.6    200.6    1.00   200.6     410.0     220.0     208.3     165.0     139.8     100.0    0.000     0.000     0.000     0.000     0.000    1.00     0.00    0.00      0   -9.90   -9.00       10.0       16.9       20.8       22.0       22.0       20.9       22.0       22.0       22.0       22.0       22.0       22.0        0.0        0.0        0.0        0.0        0.0        0.0        0.0        0.0        0.0        0.0        0.0        0.0      0.0       6.4      25.6      29.3      33.0    357.21
    17     4  1993    86     4     239.2     0.0      0.0    0.0    0.0    0.0      0.0      0.0   -9.90      0.8      0.8    100      4.6      4.6   100      5.4     5.4     100     19.1    1.00     -9      0      0      0      0    74.9    74.9      0     0.92      4.6      4.6      4.6   100    17.4     7.713    53.8    4.146   82.924      90        1.41    0.000    0.000     239.2    195.2    1.00   195.1     410.0     220.0     202.0     160.0     136.0     100.0    0.000     0.000     0.000     0.000     0.000    1.00     0.00    0.00      0   -9.90   -9.00        9.2       12.3       20.8       22.0       22.0       20.9       22.0       22.0       22.0       22.0       22.0       22.0        0.0        0.0        0.0        0.0        0.0        0.0        0.0        0.0        0.0        0.0        0.0        0.0      0.0       5.0      24.3      27.7      31.1    357.21
    18     4  1993    87     4     234.1     0.0      0.0    0.0    0.0    0.0      0.0      0.0   -9.90      0.8      0.8    100      4.3      4.3   100      5.1     5.1     100     19.4    1.00     -9      0      0      0      0    74.9    74.9      0     0.92      4.3      4.3      4.3   100    17.4     7.874    55.1    4.336   86.726      91        1.45    0.000    0.000     234.1    190.1    1.00   190.1     410.0     220.0     200.6     158.9     135.2     100.0    0.000     0.000     0.000     0.000     0.000    1.00     0.00    0.00      0   -9.90   -9.00        8.4        8.9       19.8       22.0       22.0       20.9       22.0       22.0       22.0       22.0       22.0       22.0        0.0        0.0        0.0        0.0        0.0        0.0        0.0        0.0        0.0        0.0        0.0        0.0      0.0       4.7      24.8      28.4      31.9    357.21
[...]
    20     4  1993    89     4     222.3     0.0      0.0    0.0    0.0    0.0      0.0      0.0   -9.90      0.9      0.8     89      5.1      5.1   100      5.9     5.8      98     19.7    1.00     -9      0      0      0      0    74.9    74.9      0     0.92      5.1      5.1      5.1   100    17.4     8.194    57.7    4.729   94.578      91        1.52    0.000    0.000     222.3    178.3    1.00   178.3     410.0     220.0     204.2     161.8     137.4     100.0    0.000     0.000     0.000     0.000     0.000    1.00     0.00    0.00      0   -9.90   -9.00        6.7        8.9       11.5       20.2       22.0       20.9       22.0       22.0       22.0       22.0       22.0       22.0        0.0        0.0        0.0        0.0        0.0        0.0        0.0        0.0        0.0        0.0        0.0        0.0      0.0       5.5      25.4      28.6      31.9    357.21
    21     4  1993    90     4     217.4     0.0      0.0    0.0    0.0    0.0      0.0      0.0   -9.90      0.9      0.0      3      4.9      4.9   100      5.7     4.9      85     19.2    1.00     -9      0      0      0      0    74.9    74.9      0     0.92      4.9      4.9      4.9   100    17.4     8.355    59.0    4.931   98.628      91        1.56    0.000    0.000     217.4    173.4    1.00   173.4     410.0     220.0     203.3     161.1     136.8     100.0    0.000     0.000     0.000     0.000     0.000    1.00     0.00    0.00      0   -9.90   -9.00        6.7        8.9        9.2       17.6       22.0       20.9       22.0       22.0       22.0       22.0       22.0       22.0        0.0        0.0        0.0        0.0        0.0        0.0        0.0        0.0        0.0        0.0        0.0        0.0      0.0       5.3      24.4      28.2      32.0    357.21
    22     4  1993    91     4     212.2     0.0      0.0    0.0    0.0    0.0      0.0      0.0   -9.90      0.9      0.0      2      5.1      5.1   100      6.0     5.2      85     19.1    1.00     -9      0      0      0      0    75.0    75.0      0     0.92      5.1      5.1      5.1   100    17.4     8.515    60.3    5.138  102.761      91        1.60    0.000    0.000     212.2    168.2    1.00   168.2     410.0     220.0     204.7     162.1     137.6     100.0    0.000     0.000     0.000     0.000     0.000    1.00     0.00    0.00      0   -9.90   -9.00        6.7        8.9        9.2       13.9       20.6       20.9       22.0       22.0       22.0       22.0       22.0       22.0        0.0        0.0        0.0        0.0        0.0        0.0        0.0        0.0        0.0        0.0        0.0        0.0      0.0       5.6      24.2      28.2      32.3    357.21
    23     4  1993    92     4     206.7     0.0      0.0    0.0    0.0    0.0      0.0      0.0   -9.90      1.0      0.0      2      5.5      5.5   100      6.4     5.5      85     18.8    1.00     -9      0     -9      0      0    74.6    74.6      0     0.91      5.5      5.5      5.5   100    17.4     8.674    61.7    5.348  106.960      91        1.64    0.000    0.000     206.7    162.7    1.00   162.7     410.0     220.0     206.5     163.6     138.7     100.0    0.000     0.000     0.000     0.000     0.000    1.00     0.00    0.00      0   -9.90   -9.00        6.7        8.9        9.2       10.6       18.4       20.9       22.0       22.0       22.0       22.0       22.0       22.0        0.0        0.0        0.0        0.0        0.0        0.0        0.0        0.0        0.0        0.0        0.0        0.0      0.0       6.0      23.6      28.1      32.5    357.21
    24     4  1993    93     4     264.5     0.0     63.7    0.0   63.7    0.0      0.0      0.0   -9.90      0.9      0.9    100      5.1      5.1   100      6.0     6.0     100     19.6    1.00     -9      0     -9      0      0    74.3    74.3      0     0.90      5.1      5.1      5.1   100    17.4     8.831    63.0    5.561  111.229      91        1.67    0.000    0.000     264.5    220.5    1.00   220.5     410.0     220.0     204.7     162.1     137.6     100.0    0.000     0.000     0.000     0.000     0.000    1.00     0.00    0.00      0   -9.90   -9.00       35.0       38.3        9.2       10.6       18.4       20.9       22.0       22.0       22.0       22.0       22.0       22.0        0.0        0.0        0.0        0.0        0.0        0.0        0.0        0.0        0.0        0.0        0.0        0.0      0.0       5.6      25.2      29.0      32.7    357.21
    25     4  1993    94     4     258.1     0.0      0.0    0.0    0.0    0.0      0.0      0.0   -9.90      1.0      1.0    100      5.4      5.4   100      6.4     6.4     100     20.6    1.00     -9      0     -9      0      0    73.9    73.9      0     0.90      5.4      5.4      5.4   100    17.4     8.987    63.0    5.660  113.194      92        1.67    0.000    0.000     258.1    214.1    1.00   214.1     410.0     220.0     206.5     163.6     138.7     100.0    0.000     0.000     0.000     0.000     0.000    1.00     0.00    0.00      0   -9.90   -9.00       16.2       22.0       22.3       22.3       22.0       21.2       22.0       22.0       22.0       22.0       22.0       22.0        0.0        0.0        0.0        0.0        0.0        0.0        0.0        0.0        0.0        0.0        0.0        0.0      0.0       6.0      27.3      29.5      31.6    357.21
    26     4  1993    95     4     251.5     0.0      0.0    0.0    0.0    0.0      0.0      0.0   -9.90      1.0      1.0    100      5.5      5.5   100      6.5     6.5     100     19.8    1.00     -9      0     -9      0      0    73.6    73.6      0     0.89      5.5      5.5      5.5   100    17.4     9.142    63.0    5.757  115.141      92        1.67    0.000    0.000     251.5    207.5    1.00   207.5     410.0     220.0     207.4     164.3     139.3     100.0    0.000     0.000     0.000     0.000     0.000    1.00     0.00    0.00      0   -9.90   -9.00       10.2       21.5       22.0       22.0       22.0       21.8       22.0       22.0       22.0       22.0       22.0       22.0        0.0        0.0        0.0        0.0        0.0        0.0        0.0        0.0        0.0        0.0        0.0        0.0      0.0       6.2      25.5      28.8      32.0    357.21
    27     4  1993    96     4     245.2     0.0      0.0    0.0    0.0    0.0      0.0      0.0   -9.90      1.0      1.0    100      5.3      5.3   100      6.4     6.4     100     18.8    1.00     -9      0     -9      0      0    73.1    73.1      0     0.88      5.3      5.3      5.3   100    17.4     9.295    63.0    5.853  117.067      92        1.66    0.000    0.000     245.2    201.2    1.00   201.1     410.0     220.0     206.9     163.9     139.0     100.0    0.000     0.000     0.000     0.000     0.000    1.00     0.00    0.00      0   -9.90   -9.00        9.2       16.8       21.3       22.0       22.0       21.9       22.0       22.0       22.0       22.0       22.0       22.0        0.0        0.0        0.0        0.0        0.0        0.0        0.0        0.0        0.0        0.0        0.0        0.0      0.0       6.1      23.5      28.2      33.0    357.21
    28     4  1993    97     4     239.1     0.0      0.0    0.0    0.0    0.0      0.0      0.0   -9.90      1.0      1.0    100      5.0      5.0   100      6.0     6.0     100     19.2    1.00     -9      0     -9      0      0    72.7    72.7      0     0.87      5.0      5.0      5.0   100    17.4     9.446    63.0    5.949  118.971      92        1.66    0.000    0.000     239.1    195.1    1.00   195.1     410.0     220.0     205.6     162.8     138.2     100.0    0.000     0.000     0.000     0.000     0.000    1.00     0.00    0.00      0   -9.90   -9.00        8.2       12.1       21.0       22.0       22.0       21.9       22.0       22.0       22.0       22.0       22.0       22.0        0.0        0.0        0.0        0.0        0.0        0.0        0.0        0.0        0.0        0.0        0.0        0.0      0.0       5.8      24.4      28.6      32.7    357.21
    29     4  1993    98     4     233.7     0.0      0.0    0.0    0.0    0.0      0.0      0.0   -9.90      0.9      0.9    100      4.5      4.5   100      5.4     5.4     100     19.7    1.00     -9      0     -9      0      0    72.2    72.2      0     0.86      4.5      4.5      4.5   100    17.4     9.595    63.0    6.043  120.851      92        1.66    0.000    0.000     233.7    189.7    1.00   189.7     410.0     220.0     202.9     160.7     136.5     100.0    0.000     0.000     0.000     0.000     0.000    1.00     0.00    0.00      0   -9.90   -9.00        7.3        8.9       19.7       22.0       22.0       21.9       22.0       22.0       22.0       22.0       22.0       22.0        0.0        0.0        0.0        0.0        0.0        0.0        0.0        0.0        0.0        0.0        0.0        0.0      0.0       5.2      25.4      28.6      31.8    357.21
    30     4  1993    99     4     226.8     0.0      0.0    0.0    0.0    0.0      0.0      0.0   -9.90      1.3      1.1     83      5.9      5.9   100      7.2     7.0      97     20.4    1.00     -9      0     -9      0      0    71.6    71.6      0     0.85      5.9      5.9      5.9   100    17.4     9.742    63.0    6.135  122.707      92        1.66    0.000    0.000     226.8    182.8    1.00   182.8     410.0     220.0     211.0     167.1     141.5     100.0    0.000     0.000     0.000     0.000     0.000    1.00     0.00    0.00      0   -9.90   -9.00        6.2        8.9       15.5       20.3       22.0       21.9       22.0       22.0       22.0       22.0       22.0       22.0        0.0        0.0        0.0        0.0        0.0        0.0        0.0        0.0        0.0        0.0        0.0        0.0      0.0       7.0      26.7      31.0      35.3    357.21
     1     5  1993   100     4     220.8     0.0      0.0    0.0    0.0    0.0      0.0      0.0   -9.90      1.3      0.0      3      5.9      5.9   100      7.2     5.9      82     19.2    1.00     -9      0     -9      0      0    71.0    71.0      0     0.83      5.9      5.9      5.9   100    17.4     9.888    63.0    6.227  124.536      92        1.66    0.000    0.000     220.8    176.8    1.00   176.8     410.0     220.0     211.4     167.5     141.7     100.0    0.000     0.000     0.000     0.000     0.000    1.00     0.00    0.00      0   -9.90   -9.00        6.2        8.9       11.5       18.4       22.0       21.9       22.0       22.0       22.0       22.0       22.0       22.0        0.0        0.0        0.0        0.0        0.0        0.0        0.0        0.0        0.0        0.0        0.0        0.0      0.0       7.1      24.4      29.9      35.4    357.21
     2     5  1993   101     4     215.0     0.0      0.0    0.0    0.0    0.0      0.0      0.0   -9.90      1.3      0.0      2      5.7      5.7   100      7.0     5.8      82     19.4    1.00     -9      0     -9      0      0    70.4    70.4      0     0.82      5.7      5.7      5.7   100    17.4    10.030    63.0    6.317  126.336      92        1.65    0.000    0.000     215.0    171.0    1.00   171.0     410.0     220.0     211.0     167.1     141.5     100.0    0.000     0.000     0.000     0.000     0.000    1.00     0.00    0.00      0   -9.90   -9.00        6.1        8.9        9.3       14.8       22.0       21.9       22.0       22.0       22.0       22.0       22.0       22.0        0.0        0.0        0.0        0.0        0.0        0.0        0.0        0.0        0.0        0.0        0.0        0.0      0.0       7.0      24.8      30.0      35.3    357.21
     3     5  1993   102     4     209.6     0.0      0.0    0.0    0.0    0.0      0.0      0.0   -9.90      1.3      0.0      2      5.4      5.4   100      6.7     5.4      81     19.6    1.00     -9      0     -9      0      0    69.7    69.7      0     0.81      5.4      5.4      5.4   100    17.4    10.171    63.0    6.405  128.106      93        1.65    0.000    0.000     209.6    165.6    1.00   165.6     410.0     220.0     209.6     166.0     140.6     100.0    0.000     0.000     0.000     0.000     0.000    1.00     0.00    0.00      0   -9.90   -9.00        6.1        8.9        9.3       11.3       20.1       21.9       22.0       22.0       22.0       22.0       22.0       22.0        0.0        0.0        0.0        0.0        0.0        0.0        0.0        0.0        0.0        0.0        0.0        0.0      0.0       6.7      25.3      29.5      33.6    357.21
     4     5  1993   103     4     265.0     0.0     61.1    0.0   61.1    0.0      0.0      0.0   -9.90      1.1      1.1    100      4.6      4.6   100      5.7     5.7     100     19.9    1.00     -9      0     -9      0      0    69.0    69.0      0     0.79      4.6      4.6      4.6   100    17.4    10.309    63.0    6.492  129.843      93        1.65    0.000    0.000     265.0    221.0    1.00   221.0     410.0     220.0     205.6     162.8     138.2     100.0    0.000     0.000     0.000     0.000     0.000    1.00     0.00    0.00      0   -9.90   -9.00       35.3       35.1        9.3       11.3       20.1       21.9       22.0       22.0       22.0       22.0       22.0       22.0        0.0        0.0        0.0        0.0        0.0        0.0        0.0        0.0        0.0        0.0        0.0        0.0      0.0       5.8      25.7      30.0      34.2    357.21
     5     5  1993   104     4     259.1     0.0      0.0    0.0    0.0    0.0      0.0      0.0   -9.90      1.2      1.2    100      4.6      4.6   100      5.8     5.8     100     20.2    1.00     -9      0     -9      0      0    68.2    68.2      0     0.77      4.6      4.6      4.6   100    17.4    10.444    63.0    6.577  131.544      93        1.65    0.000    0.000     259.1    215.1    1.00   215.1     410.0     220.0     206.5     163.6     138.7     100.0    0.000     0.000     0.000     0.000     0.000    1.00     0.00    0.00      0   -9.90   -9.00       16.5       22.4       22.4       22.2       21.8       21.9       22.0       22.0       22.0       22.0       22.0       22.0        0.0        0.0        0.0        0.0        0.0        0.0        0.0        0.0        0.0        0.0        0.0        0.0      0.0       6.0      26.5      30.1      33.6    357.21
     6     5  1993   105     4     252.8     0.0      0.0    0.0    0.0    0.0      0.4      0.0   -9.90      1.2      1.2    100      4.6      4.6   100      5.9     5.9     100     20.1    1.00     -9      0     -9      0      0    67.3    67.3      0     0.76      4.6      4.6      4.6   100    17.4    10.576    63.0    6.660  133.209      93        1.65    0.000    0.000     252.8    208.8    1.00   208.8     410.0     220.0     206.9     163.9     139.0     100.0    0.000     0.000     0.000     0.000     0.000    1.00     0.00    0.00      0   -9.90   -9.00       10.7       22.0       22.0       22.0       22.0       22.0       22.0       22.0       22.0       22.0       22.0       22.0        0.0        0.0        0.0        0.0        0.0        0.0        0.0        0.0        0.0        0.0        0.0        0.0      0.0       6.1      26.2      29.5      32.8    357.21
     7     5  1993   106     4     246.4     0.0      0.0    0.0    0.0    0.0      0.1      0.0   -9.90      1.4      1.4    100      4.9      4.9   100      6.3     6.3     100     19.5    1.00     -9      0     -9      0      0    66.4    66.4      0     0.74      4.9      4.9      4.9   100    17.4    10.705    63.0    6.742  134.833      93        1.64    0.000    0.000     246.4    202.4    1.00   202.4     410.0     220.0     209.2     165.7     140.4     100.0    0.000     0.000     0.000     0.000     0.000    1.00     0.00    0.00      0   -9.90   -9.00        9.3       17.3       21.8       22.0       22.0       22.0       22.0       22.0       22.0       22.0       22.0       22.0        0.0        0.0        0.0        0.0        0.0        0.0        0.0        0.0        0.0        0.0        0.0        0.0      0.0       6.6      25.0      29.6      34.2    357.21
     8     5  1993   107     4     240.5     0.0      0.0    0.0    0.0    0.0      0.0      0.0   -9.90      1.3      1.3    100      4.5      4.5   100      5.9     5.9     100     19.9    1.00     -9      0     -9      0      0    65.4    65.4      0     0.72      4.5      4.5      4.5   100    17.4    10.831    63.0    6.821  136.414      93        1.64    0.000    0.000     240.5    196.5    1.00   196.5     410.0     220.0     207.8     164.6     139.5     100.0    0.000     0.000     0.000     0.000     0.000    1.00     0.00    0.00      0   -9.90   -9.00        8.0       12.8       21.8       22.0       22.0       22.0       22.0       22.0       22.0       22.0       22.0       22.0        0.0        0.0        0.0        0.0        0.0        0.0        0.0        0.0        0.0        0.0        0.0        0.0      0.0       6.3      25.9      29.8      33.6    357.21
     9     5  1993   108     4     235.7     0.0      0.0    0.0    0.0    0.0      0.0      0.0   -9.90      1.3      0.7     59      4.1      4.1   100      5.3     4.8      90     20.1    1.00     -9      0     -9      0      0    64.3    64.3      0     0.70      4.1      4.1      4.1   100    17.4    10.953    63.0    6.897  137.950      93        1.64    0.000    0.000     235.7    191.7    1.00   191.7     410.0     220.0     205.6     162.8     138.2     100.0    0.000     0.000     0.000     0.000     0.000    1.00     0.00    0.00      0   -9.90   -9.00        7.2        9.2       21.4       22.0       22.0       22.0       22.0       22.0       22.0       22.0       22.0       22.0        0.0        0.0        0.0        0.0        0.0        0.0        0.0        0.0        0.0        0.0        0.0        0.0      0.0       5.8      26.2      30.0      33.8    357.21
    10     5  1993   109     4     231.5     0.0      0.0    0.0    0.0    0.0      0.0      0.0   -9.90      1.4      0.0      3      4.2      4.2   100      5.6     4.2      76     19.9    1.00     -9      0     -9      0      0    63.1    63.1      0     0.68      4.2      4.2      4.2   100    17.4    11.071    63.0    6.972  139.436      93        1.64    0.000    0.000     231.5    187.5    1.00   187.5     410.0     220.0     207.4     164.3     139.3     100.0    0.000     0.000     0.000     0.000     0.000    1.00     0.00    0.00      0   -9.90   -9.00        7.2        9.2       17.2       22.0       22.0       22.0       22.0       22.0       22.0       22.0       22.0       22.0        0.0        0.0        0.0        0.0        0.0        0.0        0.0        0.0        0.0        0.0        0.0        0.0      0.0       6.2      25.9      29.6      33.3    357.21
    11     5  1993   110     4     227.7     0.0      0.0    0.0    0.0    0.0      0.0      0.0   -9.90      1.3      0.0      3      3.8      3.8   100      5.1     3.8      75     19.8    1.00     -9      0     -9      0      0    61.8    61.8      0     0.65      3.8      3.8      3.8   100    17.4    11.184    63.0    7.044  140.871      93        1.64    0.000    0.000     227.7    183.7    1.00   183.7     410.0     220.0     205.6     162.8     138.2     100.0    0.000     0.000     0.000     0.000     0.000    1.00     0.00    0.00      0   -9.90   -9.00        7.1        9.2       13.4       22.0       22.0       22.0       22.0       22.0       22.0       22.0       22.0       22.0        0.0        0.0        0.0        0.0        0.0        0.0        0.0        0.0        0.0        0.0        0.0        0.0      0.0       5.8      25.6      29.6      33.5    357.21
