AquaCrop 7.2 (August 2024) - Output created on (date) : 09-12-2024   at (time) : 19:45:38
Biomass and Yield at Multiple cuttings

    Nr   Day  Month Year   DAP Interval  Biomass    Sum(B)   Dry-Yield  Sum(Y) Fresh-Yield  Sum(Y)
                                 days     ton/ha    ton/ha    ton/ha    ton/ha    ton/ha    ton/ha
     0    22     1  1996                             0.000               0.000               0.000
  9999    11     5  1996                            11.854               7.468             149.357
