AquaCrop 7.2 (August 2024) - Output created on (date) : 11-12-2024   at (time) : 19:42:06

   Day Month  Year   DAP Stage   WC(1.20)   Rain     Irri   Surf   Infilt   RO    Drain       CR    Zgwt       Ex       E     E/Ex     Trx       Tr  Tr/Trx    ETx      ET  ET/ETx      GD       Z     StExp  StSto  StSen StSalt StWeed   CC      CCw     StTr  Kc(Tr)     Trx       Tr      TrW  Tr/Trx   WP    Biomass     HI    Y(dry)  Y(fresh)  Brelative    WPet      Bin     Bout  WC(1.20) Wr(0.61)     Z       Wr    Wr(SAT)    Wr(FC)   Wr(exp)   Wr(sto)   Wr(sen)   Wr(PWP)    SaltIn    SaltOut   SaltUp   Salt(1.20)  SaltZ     Z       ECe    ECsw   StSalt  Zgwt    ECgw       WC01       WC 2       WC 3       WC 4       WC 5       WC 6       WC 7       WC 8       WC 9       WC10       WC11       WC12      ECe01      ECe 2      ECe 3      ECe 4      ECe 5      ECe 6      ECe 7      ECe 8      ECe 9      ECe10      ECe11      ECe12     Rain       ETo      Tmin      Tavg      Tmax      CO2
                                      mm      mm       mm     mm     mm     mm       mm       mm      m        mm       mm     %        mm       mm    %        mm      mm       %  degC-day     m       %      %      %      %      %      %       %       %       -        mm       mm       mm    %     g/m2    ton/ha      %    ton/ha   ton/ha       %       kg/m3   ton/ha   ton/ha      mm       mm       m       mm        mm        mm        mm        mm        mm         mm    ton/ha    ton/ha    ton/ha    ton/ha    ton/ha     m      dS/m    dS/m      %     m      dS/m       0.05       0.15       0.25       0.35       0.45       0.55       0.65       0.75       0.85       0.95       1.05       1.15       0.05       0.15       0.25       0.35       0.45       0.55       0.65       0.75       0.85       0.95       1.05       1.15       mm        mm     degC      degC      degC       ppm
    22     1  1996     1     1     260.8     0.0      0.0    0.0    0.0    0.0      0.0      0.0   -9.90      4.2      3.2     76      0.0      0.0   100      4.2     3.2      76     15.2    0.30     -9     -9     -9      0     -9     0.0     0.0      0    -9.00      0.0      0.0      0.0   100     0.0     0.000    -9.9    0.000    0.000      -9        0.00    0.000    0.000     260.8    130.9    0.30    62.8     123.0      66.0      60.6      46.7      40.8      30.0    0.000     0.000     0.000     0.000     0.000    0.30     0.00    0.00      0   -9.90   -9.00       18.8       22.0       22.0       22.0       22.0       22.0       22.0       22.0       22.0       22.0       22.0       22.0        0.0        0.0        0.0        0.0        0.0        0.0        0.0        0.0        0.0        0.0        0.0        0.0      0.0       3.8      16.4      23.4      30.5    362.74
    23     1  1996     2     1     258.7     0.0      0.0    0.0    0.0    0.0      0.0      0.0   -9.90      4.3      2.1     50      0.0      0.0   100      4.3     2.1      50     14.5    0.30     -9     -9     -9      0     -9     0.0     0.0      0    -9.00      0.0      0.0      0.0   100     0.0     0.000    -9.9    0.000    0.000      -9        0.00    0.000    0.000     258.7    128.8    0.30    60.7     123.0      66.0      60.6      46.8      40.8      30.0    0.000     0.000     0.000     0.000     0.000    0.30     0.00    0.00      0   -9.90   -9.00       16.7       22.0       22.0       22.0       22.0       22.0       22.0       22.0       22.0       22.0       22.0       22.0        0.0        0.0        0.0        0.0        0.0        0.0        0.0        0.0        0.0        0.0        0.0        0.0      0.0       3.9      15.0      22.2      29.5    362.74
    24     1  1996     3     1     256.9     0.0      0.0    0.0    0.0    0.0      0.0      0.0   -9.90      4.8      1.8     36      0.0      0.0   100      4.8     1.8      36     14.0    0.30     -9     -9     -9      0     -9     0.0     0.0      0    -9.00      0.0      0.0      0.0   100     0.0     0.000    -9.9    0.000    0.000      -9        0.00    0.000    0.000     256.9    127.0    0.30    58.9     123.0      66.0      60.6      47.4      40.8      30.0    0.000     0.000     0.000     0.000     0.000    0.30     0.00    0.00      0   -9.90   -9.00       14.9       22.0       22.0       22.0       22.0       22.0       22.0       22.0       22.0       22.0       22.0       22.0        0.0        0.0        0.0        0.0        0.0        0.0        0.0        0.0        0.0        0.0        0.0        0.0      0.0       4.4      14.0      21.8      29.5    362.74
    25     1  1996     4     1     255.6     0.0      0.0    0.0    0.0    0.0      0.0      0.0   -9.90      4.6      1.3     28      0.0      0.0   100      4.6     1.3      28     13.0    0.30     -9     -9     -9      0     -9     0.0     0.0      0    -9.00      0.0      0.0      0.0   100     0.0     0.000    -9.9    0.000    0.000      -9        0.00    0.000    0.000     255.6    125.7    0.30    57.6     123.0      66.0      60.6      47.1      40.8      30.0    0.000     0.000     0.000     0.000     0.000    0.30     0.00    0.00      0   -9.90   -9.00       13.6       22.0       22.0       22.0       22.0       22.0       22.0       22.0       22.0       22.0       22.0       22.0        0.0        0.0        0.0        0.0        0.0        0.0        0.0        0.0        0.0        0.0        0.0        0.0      0.0       4.2      12.0      20.5      29.0    362.74
    26     1  1996     5     1     254.6     0.0      0.0    0.0    0.0    0.0      0.0      0.0   -9.90      4.3      1.0     23      0.0      0.0   100      4.3     1.0      23     14.0    0.30     -9     -9     -9      0     -9     0.0     0.0      0    -9.00      0.0      0.0      0.0   100     0.0     0.000    -9.9    0.000    0.000      -9        0.00    0.000    0.000     254.6    124.7    0.30    56.6     123.0      66.0      60.6      46.8      40.8      30.0    0.000     0.000     0.000     0.000     0.000    0.30     0.00    0.00      0   -9.90   -9.00       12.6       22.0       22.0       22.0       22.0       22.0       22.0       22.0       22.0       22.0       22.0       22.0        0.0        0.0        0.0        0.0        0.0        0.0        0.0        0.0        0.0        0.0        0.0        0.0      0.0       3.9      14.0      22.1      30.2    362.74
    27     1  1996     6     1     253.7     0.0      0.0    0.0    0.0    0.0      0.0      0.0   -9.90      4.5      0.9     20      0.0      0.0   100      4.5     0.9      20     14.2    0.30     -9     -9     -9      0     -9     0.0     0.0      0    -9.00      0.0      0.0      0.0   100     0.0     0.000    -9.9    0.000    0.000      -9        0.00    0.000    0.000     253.7    123.8    0.30    55.7     123.0      66.0      60.6      47.0      40.8      30.0    0.000     0.000     0.000     0.000     0.000    0.30     0.00    0.00      0   -9.90   -9.00       11.7       22.0       22.0       22.0       22.0       22.0       22.0       22.0       22.0       22.0       22.0       22.0        0.0        0.0        0.0        0.0        0.0        0.0        0.0        0.0        0.0        0.0        0.0        0.0      0.0       4.1      14.5      22.8      31.0    362.74
    28     1  1996     7     1     252.8     0.0      0.0    0.0    0.0    0.0      0.0      0.0   -9.90      5.3      0.9     17      0.0      0.0   100      5.3     0.9      17     15.1    0.30     -9     -9     -9      0     -9     0.0     0.0      0    -9.00      0.0      0.0      0.0   100     0.0     0.000    -9.9    0.000    0.000      -9        0.00    0.000    0.000     252.8    122.9    0.30    54.8     123.0      66.0      60.6      47.8      40.8      30.0    0.000     0.000     0.000     0.000     0.000    0.30     0.00    0.00      0   -9.90   -9.00       10.8       22.0       22.0       22.0       22.0       22.0       22.0       22.0       22.0       22.0       22.0       22.0        0.0        0.0        0.0        0.0        0.0        0.0        0.0        0.0        0.0        0.0        0.0        0.0      0.0       4.8      16.2      23.4      30.5    362.74
    29     1  1996     8     1     264.3     0.0     16.5    0.0   16.5    0.0      0.0      0.0   -9.90      5.0      5.0    100      0.0      0.0   100      5.0     5.0     100     14.5    0.30     -9     -9     -9      0     -9     0.0     0.0      0    -9.00      0.0      0.0      0.0   100     0.0     0.000    -9.9    0.000    0.000      -9        0.00    0.000    0.000     264.3    134.4    0.30    66.3     123.0      66.0      60.6      47.5      40.8      30.0    0.000     0.000     0.000     0.000     0.000    0.30     0.00    0.00      0   -9.90   -9.00       22.3       22.0       22.0       22.0       22.0       22.0       22.0       22.0       22.0       22.0       22.0       22.0        0.0        0.0        0.0        0.0        0.0        0.0        0.0        0.0        0.0        0.0        0.0        0.0      0.0       4.5      15.0      22.5      30.0    362.74
    30     1  1996     9     1     259.5     0.0      0.0    0.0    0.0    0.0      0.2      0.0   -9.90      5.2      4.6     88      0.0      0.0   100      5.2     4.6      88     14.6    0.30     -9     -9     -9      0     -9     0.0     0.0      0    -9.00      0.0      0.0      0.0   100     0.0     0.000    -9.9    0.000    0.000      -9        0.00    0.000    0.000     259.5    129.6    0.30    61.5     123.0      66.0      60.6      47.7      40.8      30.0    0.000     0.000     0.000     0.000     0.000    0.30     0.00    0.00      0   -9.90   -9.00       17.5       22.0       22.0       22.0       22.0       22.0       22.0       22.0       22.0       22.0       22.0       22.0        0.0        0.0        0.0        0.0        0.0        0.0        0.0        0.0        0.0        0.0        0.0        0.0      0.0       4.7      15.2      23.0      30.8    362.74
    31     1  1996    10     2     256.8     0.0      0.0    0.0    0.0    0.0      0.1      0.0   -9.90      5.0      2.6     52      0.1      0.1   100      5.1     2.6      52     14.8    0.31     -9      0      0      0      0     0.8     0.8      0     0.01      0.1      0.1      0.1   100    17.7     0.002    -9.9    0.000    0.000     100        0.00    0.000    0.000     256.8    126.9    0.31    60.1     125.4      67.3      61.3      48.5      41.3      30.6    0.000     0.000     0.000     0.000     0.000    0.31     0.00    0.00      0   -9.90   -9.00       14.8       22.0       22.0       22.0       22.0       22.0       22.0       22.0       22.0       22.0       22.0       22.0        0.0        0.0        0.0        0.0        0.0        0.0        0.0        0.0        0.0        0.0        0.0        0.0      0.0       4.6      15.6      23.2      30.8    362.74
     1     2  1996    11     2     255.2     0.0      0.0    0.0    0.0    0.0      0.0      0.0   -9.90      4.4      1.6     35      0.1      0.1   100      4.5     1.6      36     15.0    0.32      0      0      0      0      0     0.9     0.9      0     0.02      0.1      0.1      0.1   100    17.7     0.005    -9.9    0.000    0.000     100        0.00    0.000    0.000     255.2    125.3    0.32    60.8     129.7      69.6      62.6      49.6      42.2      31.6    0.000     0.000     0.000     0.000     0.000    0.32     0.00    0.00      0   -9.90   -9.00       13.2       22.0       22.0       22.0       22.0       22.0       22.0       22.0       22.0       22.0       22.0       22.0        0.0        0.0        0.0        0.0        0.0        0.0        0.0        0.0        0.0        0.0        0.0        0.0      0.0       4.1      16.0      23.5      31.0    362.74
     2     2  1996    12     2     253.7     0.0      0.0    0.0    0.0    0.0      0.0      0.0   -9.90      5.1      1.4     27      0.1      0.1   100      5.2     1.4      28     15.6    0.33      3      0      0      0      0     1.0     1.0      0     0.02      0.1      0.1      0.1   100    17.7     0.008    -9.9    0.000    0.000     100        0.00    0.000    0.000     253.7    123.9    0.33    61.5     133.8      71.8      65.5      51.8      44.1      32.6    0.000     0.000     0.000     0.000     0.000    0.33     0.00    0.00      0   -9.90   -9.00       11.7       22.0       22.0       22.0       22.0       22.0       22.0       22.0       22.0       22.0       22.0       22.0        0.0        0.0        0.0        0.0        0.0        0.0        0.0        0.0        0.0        0.0        0.0        0.0      0.0       4.7      17.2      24.2      31.2    362.74
     3     2  1996    13     2     252.7     0.0      0.0    0.0    0.0    0.0      0.0      0.0   -9.90      4.5      1.0     21      0.1      0.1   100      4.6     1.0      23     14.4    0.34      4      0      0      0      0     1.1     1.1      0     0.02      0.1      0.1      0.1   100    17.7     0.012    -9.9    0.000    0.000     100        0.00    0.000    0.000     252.7    122.8    0.34    62.6     137.6      73.9      66.6      52.8      44.9      33.6    0.000     0.000     0.000     0.000     0.000    0.34     0.00    0.00      0   -9.90   -9.00       10.7       22.0       22.0       22.0       22.0       22.0       22.0       22.0       22.0       22.0       22.0       22.0        0.0        0.0        0.0        0.0        0.0        0.0        0.0        0.0        0.0        0.0        0.0        0.0      0.0       4.2      14.8      22.1      29.5    362.74
     4     2  1996    14     2     251.7     0.0      0.0    0.0    0.0    0.0      0.0      0.0   -9.90      5.0      0.9     18      0.1      0.1   100      5.1     1.0      19     14.8    0.34      7      0      0      0      0     1.3     1.3      0     0.02      0.1      0.1      0.1   100    17.7     0.016    -9.9    0.000    0.000      99        0.00    0.000    0.000     251.7    121.8    0.34    63.6     141.4      75.9      69.0      54.7      46.5      34.5    0.000     0.000     0.000     0.000     0.000    0.34     0.00    0.00      0   -9.90   -9.00        9.8       21.9       22.0       22.0       22.0       22.0       22.0       22.0       22.0       22.0       22.0       22.0        0.0        0.0        0.0        0.0        0.0        0.0        0.0        0.0        0.0        0.0        0.0        0.0      0.0       4.6      15.6      22.8      30.0    362.74
     5     2  1996    15     2     250.9     0.0      0.0    0.0    0.0    0.0      0.0      0.0   -9.90      4.9      0.7     15      0.1      0.1   100      5.1     0.9      17     14.5    0.35      8      0      0      0      0     1.4     1.4      0     0.03      0.1      0.1      0.1   100    17.7     0.020    -9.9    0.000    0.000      99        0.00    0.000    0.000     250.9    121.0    0.35    64.7     145.0      77.8      70.8      56.1      47.7      35.4    0.000     0.000     0.000     0.000     0.000    0.35     0.00    0.00      0   -9.90   -9.00        9.1       21.8       22.0       22.0       22.0       22.0       22.0       22.0       22.0       22.0       22.0       22.0        0.0        0.0        0.0        0.0        0.0        0.0        0.0        0.0        0.0        0.0        0.0        0.0      0.0       4.6      15.0      22.5      30.0    362.74
     6     2  1996    16     2     250.1     0.0      0.0    0.0    0.0    0.0      0.0      0.0   -9.90      4.7      0.6     13      0.1      0.1   100      4.8     0.7      15     14.2    0.36      9      0      0      0      0     1.6     1.6      0     0.03      0.1      0.1      0.1   100    17.7     0.025    -9.9    0.000    0.000      98        0.00    0.000    0.000     250.1    120.2    0.36    65.8     148.5      79.7      72.2      57.2      48.7      36.2    0.000     0.000     0.000     0.000     0.000    0.36     0.00    0.00      0   -9.90   -9.00        8.5       21.7       22.0       22.0       22.0       22.0       22.0       22.0       22.0       22.0       22.0       22.0        0.0        0.0        0.0        0.0        0.0        0.0        0.0        0.0        0.0        0.0        0.0        0.0      0.0       4.4      14.5      22.5      30.5    362.74
     7     2  1996    17     2     249.4     0.0      0.0    0.0    0.0    0.0      0.0      0.0   -9.90      4.9      0.6     11      0.1      0.1   100      5.1     0.7      14     13.5    0.37     11      0      0      0      0     1.8     1.8      0     0.03      0.1      0.1      0.1   100    17.7     0.031    -9.9    0.000    0.000      98        0.00    0.000    0.000     249.4    119.5    0.37    67.0     152.0      81.5      74.2      58.8      50.0      37.1    0.000     0.000     0.000     0.000     0.000    0.37     0.00    0.00      0   -9.90   -9.00        7.9       21.5       22.0       22.0       22.0       22.0       22.0       22.0       22.0       22.0       22.0       22.0        0.0        0.0        0.0        0.0        0.0        0.0        0.0        0.0        0.0        0.0        0.0        0.0      0.0       4.6      13.0      21.8      30.5    362.74
     8     2  1996    18     2     248.7     0.0      0.0    0.0    0.0    0.0      0.0      0.0   -9.90      5.2      0.5     10      0.2      0.2   100      5.4     0.7      13     15.0    0.38     13      0      0      0      0     2.0     2.0      0     0.04      0.2      0.2      0.2   100    17.7     0.037    -9.9    0.000    0.000      97        0.00    0.000    0.000     248.7    118.8    0.38    68.0     155.3      83.3      76.3      60.5      51.4      37.9    0.000     0.000     0.000     0.000     0.000    0.38     0.00    0.00      0   -9.90   -9.00        7.4       21.3       22.0       22.0       22.0       22.0       22.0       22.0       22.0       22.0       22.0       22.0        0.0        0.0        0.0        0.0        0.0        0.0        0.0        0.0        0.0        0.0        0.0        0.0      0.0       4.9      16.0      22.9      29.8    362.74
     9     2  1996    19     2     247.9     0.0      0.0    0.0    0.0    0.0      0.0      0.0   -9.90      6.2      0.6      9      0.2      0.2   100      6.5     0.8      12     14.5    0.39     20      0      0      0      0     2.2     2.2      0     0.04      0.2      0.2      0.2   100    17.7     0.044    -9.9    0.000    0.000      96        0.00    0.000    0.000     247.9    118.0    0.39    69.0     158.6      85.1      79.7      63.1      53.5      38.7    0.000     0.000     0.000     0.000     0.000    0.39     0.00    0.00      0   -9.90   -9.00        6.8       21.1       22.0       22.0       22.0       22.0       22.0       22.0       22.0       22.0       22.0       22.0        0.0        0.0        0.0        0.0        0.0        0.0        0.0        0.0        0.0        0.0        0.0        0.0      0.0       5.9      15.0      22.2      29.5    362.74
    10     2  1996    20     2     264.0     0.0     22.6    0.0   22.6    0.0      0.0      0.0   -9.90      6.2      6.2    100      0.3      0.3   100      6.5     6.5     100     16.5    0.39      0      0      0      0      0     2.5     2.5      0     0.04      0.3      0.3      0.3   100    17.7     0.052    -9.9    0.000    0.000      95        0.00    0.000    0.000     264.0    134.1    0.39    86.8     161.7      86.8      81.3      64.4      54.6      39.4    0.000     0.000     0.000     0.000     0.000    0.39     0.00    0.00      0   -9.90   -9.00       22.9       21.1       22.0       22.0       22.0       22.0       22.0       22.0       22.0       22.0       22.0       22.0        0.0        0.0        0.0        0.0        0.0        0.0        0.0        0.0        0.0        0.0        0.0        0.0      0.0       5.9      19.0      23.8      28.5    362.74
    11     2  1996    21     2     260.0     0.0      0.0    0.0    0.0    0.0      0.0      0.0   -9.90      4.7      3.8     80      0.2      0.2   100      4.9     4.0      81     15.0    0.40      0      0      0      0      0     2.9     2.9      0     0.05      0.2      0.2      0.2   100    17.7     0.061    -9.9    0.000    0.000      94        0.00    0.000    0.000     260.0    130.1    0.40    84.4     164.9      88.5      80.3      63.6      54.1      40.2    0.000     0.000     0.000     0.000     0.000    0.40     0.00    0.00      0   -9.90   -9.00       18.1       21.9       22.0       22.0       22.0       22.0       22.0       22.0       22.0       22.0       22.0       22.0        0.0        0.0        0.0        0.0        0.0        0.0        0.0        0.0        0.0        0.0        0.0        0.0      0.0       4.5      16.0      23.0      30.0    362.74
    12     2  1996    22     2     257.8     0.0      0.0    0.0    0.0    0.0      0.0      0.0   -9.90      3.9      1.9     49      0.2      0.2   100      4.2     2.2      52     15.4    0.41      0      0      0      0      0     3.3     3.3      0     0.06      0.2      0.2      0.2   100    17.7     0.072    -9.9    0.000    0.000      94        0.00    0.000    0.000     257.8    127.9    0.41    83.9     167.9      90.1      80.5      63.8      54.4      41.0    0.000     0.000     0.000     0.000     0.000    0.41     0.00    0.00      0   -9.90   -9.00       15.9       21.9       22.0       22.0       22.0       22.0       22.0       22.0       22.0       22.0       22.0       22.0        0.0        0.0        0.0        0.0        0.0        0.0        0.0        0.0        0.0        0.0        0.0        0.0      0.0       3.8      16.8      22.6      28.5    362.74
    13     2  1996    23     2     256.2     0.0      0.0    0.0    0.0    0.0      0.0      0.0   -9.90      3.9      1.4     36      0.3      0.3   100      4.2     1.6      40     15.5    0.42      0      0      0      0      0     3.7     3.7      0     0.07      0.3      0.3      0.3   100    17.7     0.083    -9.9    0.000    0.000      93        0.00    0.000    0.000     256.2    126.3    0.42    83.9     170.9      91.7      82.0      64.9      55.3      41.7    0.000     0.000     0.000     0.000     0.000    0.42     0.00    0.00      0   -9.90   -9.00       14.3       21.9       22.0       22.0       22.0       22.0       22.0       22.0       22.0       22.0       22.0       22.0        0.0        0.0        0.0        0.0        0.0        0.0        0.0        0.0        0.0        0.0        0.0        0.0      0.0       3.8      17.0      22.8      28.5    362.74
    14     2  1996    24     2     254.8     0.0      0.0    0.0    0.0    0.0      0.0      0.0   -9.90      4.0      1.1     28      0.3      0.3   100      4.3     1.4      33     15.5    0.42      0      0      0      0      0     4.3     4.3      0     0.07      0.3      0.3      0.3   100    17.7     0.096    -9.9    0.000    0.000      93        0.00    0.000    0.000     254.8    124.9    0.42    84.1     173.9      93.3      83.6      66.2      56.4      42.4    0.000     0.000     0.000     0.000     0.000    0.42     0.00    0.00      0   -9.90   -9.00       12.9       21.9       22.0       22.0       22.0       22.0       22.0       22.0       22.0       22.0       22.0       22.0        0.0        0.0        0.0        0.0        0.0        0.0        0.0        0.0        0.0        0.0        0.0        0.0      0.0       3.9      17.0      23.3      29.6    362.74
    15     2  1996    25     2     253.4     0.0      0.0    0.0    0.0    0.0      0.0      0.0   -9.90      4.5      1.0     22      0.4      0.4   100      4.9     1.4      28     16.0    0.43      0      0      0      0      0     4.8     4.8      0     0.08      0.4      0.4      0.4   100    17.7     0.111    -9.9    0.000    0.000      93        0.00    0.000    0.000     253.4    123.5    0.43    84.3     176.8      94.9      86.1      68.2      58.1      43.1    0.000     0.000     0.000     0.000     0.000    0.43     0.00    0.00      0   -9.90   -9.00       11.5       21.9       22.0       22.0       22.0       22.0       22.0       22.0       22.0       22.0       22.0       22.0        0.0        0.0        0.0        0.0        0.0        0.0        0.0        0.0        0.0        0.0        0.0        0.0      0.0       4.5      18.0      24.0      30.0    362.74
    16     2  1996    26     2     252.1     0.0      0.0    0.0    0.0    0.0      0.0      0.0   -9.90      4.7      0.8     17      0.5      0.5   100      5.1     1.3      25     17.8    0.44      2      0      0      0      0     5.5     5.5      0     0.10      0.5      0.5      0.5   100    17.7     0.128    -9.9    0.000    0.000      93        0.00    0.000    0.000     252.1    122.2    0.44    84.5     179.6      96.4      87.9      69.6      59.2      43.8    0.000     0.000     0.000     0.000     0.000    0.44     0.00    0.00      0   -9.90   -9.00       10.2       21.9       22.0       22.0       22.0       22.0       22.0       22.0       22.0       22.0       22.0       22.0        0.0        0.0        0.0        0.0        0.0        0.0        0.0        0.0        0.0        0.0        0.0        0.0      0.0       4.7      21.5      25.8      30.0    362.74
    17     2  1996    27     2     250.9     0.0      0.0    0.0    0.0    0.0      0.0      0.0   -9.90      4.8      0.7     14      0.5      0.5   100      5.4     1.2      23     15.5    0.44      4      0      0      0      0     6.2     6.2      0     0.11      0.5      0.5      0.5   100    17.7     0.148    -9.9    0.000    0.000      92        0.00    0.000    0.000     250.9    121.0    0.44    84.8     182.4      97.9      89.7      71.0      60.4      44.5    0.000     0.000     0.000     0.000     0.000    0.44     0.00    0.00      0   -9.90   -9.00        9.5       21.4       22.0       22.0       22.0       22.0       22.0       22.0       22.0       22.0       22.0       22.0        0.0        0.0        0.0        0.0        0.0        0.0        0.0        0.0        0.0        0.0        0.0        0.0      0.0       4.9      17.0      23.8      30.5    362.74
    18     2  1996    28     2     249.8     0.0      0.0    0.0    0.0    0.0      0.0      0.0   -9.90      4.8      0.6     12      0.6      0.6   100      5.4     1.2      22     14.8    0.45      5      0      0      0      0     7.1     7.1      0     0.12      0.6      0.6      0.6   100    17.7     0.169    -9.9    0.000    0.000      92        0.00    0.000    0.000     249.8    119.9    0.45    85.1     185.2      99.4      91.1      72.1      61.3      45.2    0.000     0.000     0.000     0.000     0.000    0.45     0.00    0.00      0   -9.90   -9.00        9.0       20.8       22.0       22.0       22.0       22.0       22.0       22.0       22.0       22.0       22.0       22.0        0.0        0.0        0.0        0.0        0.0        0.0        0.0        0.0        0.0        0.0        0.0        0.0      0.0       4.9      15.5      23.2      31.0    362.74
    19     2  1996    29     2     248.5     0.0      0.0    0.0    0.0    0.0      0.0      0.0   -9.90      5.0      0.5     10      0.7      0.7   100      5.7     1.2      21     14.6    0.46      7      0      0      0      0     8.0     8.0      0     0.14      0.7      0.7      0.7   100    17.7     0.194    -9.9    0.000    0.000      92        0.00    0.000    0.000     248.5    118.6    0.46    85.4     188.0     100.9      93.0      73.7      62.6      45.8    0.000     0.000     0.000     0.000     0.000    0.46     0.00    0.00      0   -9.90   -9.00        8.5       20.1       22.0       22.0       22.0       22.0       22.0       22.0       22.0       22.0       22.0       22.0        0.0        0.0        0.0        0.0        0.0        0.0        0.0        0.0        0.0        0.0        0.0        0.0      0.0       5.2      15.2      23.4      31.5    362.74
    20     2  1996    30     2     247.3     0.0      0.0    0.0    0.0    0.0      0.0      0.0   -9.90      4.9      0.4      9      0.8      0.8   100      5.7     1.2      22     14.8    0.47      9      0      0      0      0     9.0     9.0      0     0.15      0.8      0.8      0.8   100    17.7     0.221    -9.9    0.000    0.000      91        0.00    0.000    0.000     247.3    117.4    0.47    85.6     190.7     102.3      94.4      74.7      63.5      46.5    0.000     0.000     0.000     0.000     0.000    0.47     0.00    0.00      0   -9.90   -9.00        8.0       19.3       22.0       22.0       22.0       22.0       22.0       22.0       22.0       22.0       22.0       22.0        0.0        0.0        0.0        0.0        0.0        0.0        0.0        0.0        0.0        0.0        0.0        0.0      0.0       5.2      15.6      24.3      33.0    362.74
    21     2  1996    31     2     246.0     0.0      0.0    0.0    0.0    0.0      0.0      0.0   -9.90      5.1      0.4      7      0.9      0.9   100      6.0     1.3      22     15.5    0.47     12      0      0      0      0    10.0    10.0      0     0.17      0.9      0.9      0.9   100    17.7     0.251    -9.9    0.000    0.000      91        0.00    0.000    0.000     246.0    116.1    0.47    85.7     193.3     103.7      96.3      76.3      64.8      47.2    0.000     0.000     0.000     0.000     0.000    0.47     0.00    0.00      0   -9.90   -9.00        7.6       18.3       22.0       22.0       22.0       22.0       22.0       22.0       22.0       22.0       22.0       22.0        0.0        0.0        0.0        0.0        0.0        0.0        0.0        0.0        0.0        0.0        0.0        0.0      0.0       5.5      17.0      25.5      34.0    362.74
    22     2  1996    32     2     244.6     0.0      0.0    0.0    0.0    0.0      0.0      0.0   -9.90      5.0      0.3      7      1.0      1.0   100      6.0     1.4      23     15.2    0.48     15      0      0      0      0    11.2    11.2      0     0.19      1.0      1.0      1.0   100    17.7     0.285    -9.9    0.000    0.000      90        0.00    0.000    0.000     244.6    114.7    0.48    85.8     196.0     105.1      97.6      77.3      65.6      47.8    0.000     0.000     0.000     0.000     0.000    0.48     0.00    0.00      0   -9.90   -9.00        7.3       17.3       22.0       22.0       22.0       22.0       22.0       22.0       22.0       22.0       22.0       22.0        0.0        0.0        0.0        0.0        0.0        0.0        0.0        0.0        0.0        0.0        0.0        0.0      0.0       5.5      16.4      25.7      35.0    362.74
    23     2  1996    33     2     264.3     0.0     25.4    0.0   25.4    0.0      0.0      0.0   -9.90      4.6      4.6    100      1.1      1.1   100      5.7     5.7     100     17.2    0.48      0      0      0      0      0    12.8    12.8      0     0.21      1.1      1.1      1.1   100    17.7     0.322    -9.9    0.000    0.000      89        0.00    0.000    0.000     264.3    134.4    0.48   106.9     198.6     106.5      98.3      77.8      66.1      48.4    0.000     0.000     0.000     0.000     0.000    0.48     0.00    0.00      0   -9.90   -9.00       27.0       17.3       22.0       22.0       22.0       22.0       22.0       22.0       22.0       22.0       22.0       22.0        0.0        0.0        0.0        0.0        0.0        0.0        0.0        0.0        0.0        0.0        0.0        0.0      0.0       5.2      20.5      27.6      34.8    362.74
    24     2  1996    34     2     258.2     0.0      0.0    0.0    0.0    0.0      0.0      0.0   -9.90      5.2      4.7     90      1.5      1.5   100      6.6     6.1      92     16.7    0.49      0      0      0      0      0    14.5    14.5      0     0.24      1.5      1.5      1.5   100    17.7     0.365    -9.9    0.000    0.000      89        0.00    0.000    0.000     258.2    128.3    0.49   102.1     201.1     107.9     101.5      80.4      68.2      49.1    0.000     0.000     0.000     0.000     0.000    0.49     0.00    0.00      0   -9.90   -9.00       16.2       22.0       22.0       22.0       22.0       22.0       22.0       22.0       22.0       22.0       22.0       22.0        0.0        0.0        0.0        0.0        0.0        0.0        0.0        0.0        0.0        0.0        0.0        0.0      0.0       6.1      19.4      27.7      36.0    362.74
    25     2  1996    35     2     254.4     0.0      0.0    0.0    0.0    0.0      0.0      0.0   -9.90      5.0      2.1     43      1.7      1.7   100      6.6     3.8      57     16.8    0.50      0      0      0      0      0    16.5    16.5      0     0.27      1.7      1.7      1.7   100    17.7     0.413    -9.9    0.000    0.000      89        0.00    0.000    0.000     254.4    124.5    0.50    99.7     203.7     109.3     102.8      81.4      69.0      49.7    0.000     0.000     0.000     0.000     0.000    0.50     0.00    0.00      0   -9.90   -9.00       12.4       22.0       22.0       22.0       22.0       22.0       22.0       22.0       22.0       22.0       22.0       22.0        0.0        0.0        0.0        0.0        0.0        0.0        0.0        0.0        0.0        0.0        0.0        0.0      0.0       6.1      19.6      27.3      35.0    362.74
    26     2  1996    36     2     251.0     0.0      0.0    0.0    0.0    0.0      0.0      0.0   -9.90      5.4      1.3     23      2.1      2.1   100      7.5     3.4      45     15.8    0.50      4      0      0      0      0    18.7    18.7      0     0.30      2.1      2.1      2.1   100    17.7     0.467    -9.9    0.000    0.000      88        0.00    0.000    0.000     251.0    121.2    0.50    97.7     206.2     110.6     105.9      83.9      71.0      50.3    0.000     0.000     0.000     0.000     0.000    0.50     0.00    0.00      0   -9.90   -9.00        9.1       22.0       22.0       22.0       22.0       22.0       22.0       22.0       22.0       22.0       22.0       22.0        0.0        0.0        0.0        0.0        0.0        0.0        0.0        0.0        0.0        0.0        0.0        0.0      0.0       6.9      17.5      25.8      34.0    362.74
    27     2  1996    37     2     248.2     0.0      0.0    0.0    0.0    0.0      0.0      0.0   -9.90      4.8      0.6     13      2.2      2.2   100      6.9     2.8      40     16.0    0.51      7      0      0      0      0    21.2    21.2      0     0.34      2.2      2.2      2.2   100    17.7     0.527    -9.9    0.000    0.000      88        0.00    0.000    0.000     248.2    118.4    0.51    96.2     208.7     112.0     106.0      84.0      71.2      50.9    0.000     0.000     0.000     0.000     0.000    0.51     0.00    0.00      0   -9.90   -9.00        8.4       19.8       22.0       22.0       22.0       22.0       22.0       22.0       22.0       22.0       22.0       22.0        0.0        0.0        0.0        0.0        0.0        0.0        0.0        0.0        0.0        0.0        0.0        0.0      0.0       6.4      18.0      26.0      34.0    362.74
    28     2  1996    38     2     245.4     0.0      0.0    0.0    0.0    0.0      0.0      0.0   -9.90      4.5      0.4     10      2.4      2.4   100      6.9     2.8      41     16.0    0.51     11      0      0      0      0    23.8    23.8      0     0.37      2.4      2.4      2.4   100    17.7     0.593    -9.9    0.000    0.000      88        0.00    0.000    0.000     245.4    115.5    0.51    94.7     211.1     113.3     107.3      85.0      72.0      51.5    0.000     0.000     0.000     0.000     0.000    0.51     0.00    0.00      0   -9.90   -9.00        8.0       17.4       22.0       22.0       22.0       22.0       22.0       22.0       22.0       22.0       22.0       22.0        0.0        0.0        0.0        0.0        0.0        0.0        0.0        0.0        0.0        0.0        0.0        0.0      0.0       6.4      18.0      24.8      31.5    362.74
    29     2  1996    39     2     242.1     0.0      0.0    0.0    0.0    0.0      0.0      0.0   -9.90      5.0      0.4      7      3.0      3.0   100      8.0     3.4      42     14.5    0.52     23      0      0      0      0    26.3    26.3      0     0.41      3.0      3.0      3.0   100    17.7     0.665    -9.9    0.000    0.000      87        0.00    0.000    0.000     242.1    112.2    0.52    92.7     213.6     114.6     110.8      87.8      74.3      52.1    0.000     0.000     0.000     0.000     0.000    0.52     0.00    0.00      0   -9.90   -9.00        7.6       14.4       22.0       22.0       22.0       22.0       22.0       22.0       22.0       22.0       22.0       22.0        0.0        0.0        0.0        0.0        0.0        0.0        0.0        0.0        0.0        0.0        0.0        0.0      0.0       7.4      15.0      24.2      33.5    362.74
     1     3  1996    40     2     264.6     0.0     29.9    0.0   29.9    0.0      0.0      0.0   -9.90      4.3      4.3    100      3.1      3.1   100      7.4     7.4     100     14.5    0.53      0      0      0      0      0    29.9    29.9      0     0.45      3.1      3.1      3.1   100    17.7     0.745    -9.9    0.000    0.000      87        0.00    0.000    0.000     264.6    134.7    0.53   116.5     216.0     115.9     110.9      87.8      74.4      52.7    0.000     0.000     0.000     0.000     0.000    0.53     0.00    0.00      0   -9.90   -9.00       30.1       14.4       22.0       22.0       22.0       22.0       22.0       22.0       22.0       22.0       22.0       22.0        0.0        0.0        0.0        0.0        0.0        0.0        0.0        0.0        0.0        0.0        0.0        0.0      0.0       6.9      15.0      24.5      34.0    362.74
     2     3  1996    41     2     258.0     0.0      0.0    0.0    0.0    0.0      0.1      0.0   -9.90      3.4      3.4     99      3.0      3.0   100      6.5     6.4     100     15.8    0.53      0      0      0      0      0    34.0    34.0      0     0.51      3.0      3.0      3.0   100    17.7     0.835    -9.9    0.000    0.000      86        0.00    0.000    0.000     258.0    128.1    0.53   111.2     218.4     117.2     110.0      87.1      73.9      53.3    0.000     0.000     0.000     0.000     0.000    0.53     0.00    0.00      0   -9.90   -9.00       16.0       22.0       22.0       22.0       22.0       22.0       22.0       22.0       22.0       22.0       22.0       22.0        0.0        0.0        0.0        0.0        0.0        0.0        0.0        0.0        0.0        0.0        0.0        0.0      0.0       6.0      17.5      25.5      33.5    362.74
     3     3  1996    42     2     252.6     0.0      0.0    0.0    0.0    0.0      0.0      0.0   -9.90      3.5      1.6     46      3.8      3.8   100      7.3     5.4      74     16.2    0.54      0      0      0      0      0    38.7    38.7      0     0.56      3.8      3.8      3.8   100    17.7     0.934    -9.9    0.000    0.000      87        0.00    0.000    0.000     252.6    122.7    0.54   107.1     220.8     118.5     113.1      89.6      75.9      53.8    0.000     0.000     0.000     0.000     0.000    0.54     0.00    0.00      0   -9.90   -9.00       10.6       22.0       22.0       22.0       22.0       22.0       22.0       22.0       22.0       22.0       22.0       22.0        0.0        0.0        0.0        0.0        0.0        0.0        0.0        0.0        0.0        0.0        0.0        0.0      0.0       6.8      18.5      26.0      33.5    362.74
     4     3  1996    43     2     248.6     0.0      0.0    0.0    0.0    0.0      0.0      0.0   -9.90      2.7      0.5     19      3.5      3.5   100      6.2     4.0      65     14.8    0.54      3      0      0      0      0    43.0    43.0      0     0.61      3.5      3.5      3.5   100    17.7     1.041    -9.9    0.000    0.000      87        0.00    0.000    0.000     248.6    118.7    0.54   104.3     223.1     119.7     111.9      88.6      75.2      54.4    0.000     0.000     0.000     0.000     0.000    0.54     0.00    0.00      0   -9.90   -9.00        9.9       18.7       22.0       22.0       22.0       22.0       22.0       22.0       22.0       22.0       22.0       22.0        0.0        0.0        0.0        0.0        0.0        0.0        0.0        0.0        0.0        0.0        0.0        0.0      0.0       5.8      15.5      23.8      32.0    362.74
     5     3  1996    44     2     245.1     0.0      0.0    0.0    0.0    0.0      0.0      0.0   -9.90      2.1      0.3     12      3.2      3.2   100      5.3     3.5      65     15.5    0.55      5      0      0      0      0    46.7    46.7      0     0.65      3.2      3.2      3.2   100    17.7     1.156    -9.9    0.000    0.000      87        0.00    0.000    0.000     245.1    115.2    0.55   102.1     225.4     121.0     111.1      88.0      74.8      55.0    0.000     0.000     0.000     0.000     0.000    0.55     0.00    0.00      0   -9.90   -9.00        9.6       15.5       22.0       22.0       22.0       22.0       22.0       22.0       22.0       22.0       22.0       22.0        0.0        0.0        0.0        0.0        0.0        0.0        0.0        0.0        0.0        0.0        0.0        0.0      0.0       5.0      17.0      24.2      31.5    362.74
     6     3  1996    45     2     241.0     0.0      0.0    0.0    0.0    0.0      0.0      0.0   -9.90      2.2      0.2      8      3.9      3.9   100      6.1     4.0      66     14.8    0.56     12      0      0      0      0    49.8    49.8      0     0.68      3.9      3.9      3.9   100    17.7     1.276    -9.9    0.000    0.000      88        0.00    0.000    0.000     241.0    111.2    0.56    99.2     227.8     122.2     114.0      90.3      76.6      55.5    0.000     0.000     0.000     0.000     0.000    0.56     0.00    0.00      0   -9.90   -9.00        9.4       11.6       22.0       22.0       22.0       22.0       22.0       22.0       22.0       22.0       22.0       22.0        0.0        0.0        0.0        0.0        0.0        0.0        0.0        0.0        0.0        0.0        0.0        0.0      0.0       5.7      15.6      24.1      32.5    362.74
     7     3  1996    46     2     264.2     0.0     29.0    0.0   29.0    0.0      0.0      0.0   -9.90      2.0      2.0    100      3.9      3.9   100      5.9     5.9     100     15.0    0.56      0      0      0      0      0    52.9    52.9      0     0.71      3.9      3.9      3.9   100    17.7     1.401    -9.9    0.000    0.000      88        0.00    0.000    0.000     264.2    134.3    0.56   123.7     230.0     123.4     114.6      90.8      77.1      56.1    0.000     0.000     0.000     0.000     0.000    0.56     0.00    0.00      0   -9.90   -9.00       32.6       11.6       22.0       22.0       22.0       22.0       22.0       22.0       22.0       22.0       22.0       22.0        0.0        0.0        0.0        0.0        0.0        0.0        0.0        0.0        0.0        0.0        0.0        0.0      0.0       5.5      16.0      24.6      33.2    362.74
     8     3  1996    47     2     257.8     0.0      0.0    0.0    0.0    0.0      0.0      0.0   -9.90      2.0      2.0    100      4.4      4.4   100      6.4     6.4     100     15.0    0.57      0      0      0      0      0    55.6    55.6      0     0.73      4.4      4.4      4.4   100    17.7     1.531    -9.9    0.000    0.000      89        0.00    0.000    0.000     257.8    127.9    0.57   118.5     232.3     124.7     117.0      92.7      78.6      56.7    0.000     0.000     0.000     0.000     0.000    0.57     0.00    0.00      0   -9.90   -9.00       16.1       21.8       22.0       22.0       22.0       22.0       22.0       22.0       22.0       22.0       22.0       22.0        0.0        0.0        0.0        0.0        0.0        0.0        0.0        0.0        0.0        0.0        0.0        0.0      0.0       6.0      16.0      24.9      33.8    362.74
     9     3  1996    48     2     251.9     0.0      0.0    0.0    0.0    0.0      0.0      0.0   -9.90      1.7      1.7    100      4.2      4.2   100      6.0     6.0     100     15.8    0.57      0      0      0      0      0    57.9    57.9      0     0.76      4.2      4.2      4.2   100    17.7     1.664    -9.9    0.000    0.000      89        0.00    0.000    0.000     251.9    122.0    0.57   113.7     234.6     125.9     117.1      92.8      78.7      57.2    0.000     0.000     0.000     0.000     0.000    0.57     0.00    0.00      0   -9.90   -9.00       10.1       21.8       22.0       22.0       22.0       22.0       22.0       22.0       22.0       22.0       22.0       22.0        0.0        0.0        0.0        0.0        0.0        0.0        0.0        0.0        0.0        0.0        0.0        0.0      0.0       5.6      17.6      26.2      34.8    362.74
    10     3  1996    49     2     246.2     0.0      0.0    0.0    0.0    0.0      0.0      0.0   -9.90      1.6      1.4     85      4.3      4.3   100      6.0     5.7      96     15.8    0.58      2      0      0      0      0    60.0    60.0      0     0.77      4.3      4.3      4.3   100    17.7     1.801    -9.9    0.000    0.000      90        0.00    0.000    0.000     246.2    116.3    0.58   109.2     236.8     127.1     118.2      93.6      79.5      57.8    0.000     0.000     0.000     0.000     0.000    0.58     0.00    0.00      0   -9.90   -9.00        8.7       17.6       21.8       22.0       22.0       22.0       22.0       22.0       22.0       22.0       22.0       22.0        0.0        0.0        0.0        0.0        0.0        0.0        0.0        0.0        0.0        0.0        0.0        0.0      0.0       5.6      17.5      26.5      35.5    362.74
    11     3  1996    50     2     241.0     0.0      0.0    0.0    0.0    0.0      0.0      0.0   -9.90      1.7      0.2     14      5.0      5.0   100      6.7     5.2      78     16.5    0.58     11      0      0      0      0    61.6    61.6      0     0.79      5.0      5.0      5.0   100    17.7     1.940    -9.9    0.000    0.000      90        0.00    0.000    0.000     241.0    111.1    0.58   105.2     239.0     128.3     121.2      96.0      81.4      58.3    0.000     0.000     0.000     0.000     0.000    0.58     0.00    0.00      0   -9.90   -9.00        8.5       13.5       21.0       22.0       22.0       22.0       22.0       22.0       22.0       22.0       22.0       22.0        0.0        0.0        0.0        0.0        0.0        0.0        0.0        0.0        0.0        0.0        0.0        0.0      0.0       6.3      19.0      27.0      35.0    362.74
    12     3  1996    51     2     264.2     0.0     29.7    0.0   29.7    0.0      0.0      0.0   -9.90      1.6      1.6    100      4.9      4.9   100      6.5     6.5     100     16.5    0.59      0      0      0      0      0    63.2    63.2      0     0.80      4.9      4.9      4.9   100    17.7     2.082    -9.9    0.000    0.000      91        0.00    0.000    0.000     264.2    134.3    0.59   129.7     241.3     129.5     121.8      96.4      81.8      58.8    0.000     0.000     0.000     0.000     0.000    0.59     0.00    0.00      0   -9.90   -9.00       31.7       13.5       21.0       22.0       22.0       22.0       22.0       22.0       22.0       22.0       22.0       22.0        0.0        0.0        0.0        0.0        0.0        0.0        0.0        0.0        0.0        0.0        0.0        0.0      0.0       6.1      19.0      27.2      35.5    362.74
    13     3  1996    52     2     257.3     0.0      0.0    0.0    0.0    0.0      0.0      0.0   -9.90      1.6      1.6    100      5.3      5.3   100      6.9     6.9     100     17.4    0.59      0      0      0      0      0    64.7    64.7      0     0.81      5.3      5.3      5.3   100    17.7     2.226    -9.9    0.000    0.000      91        0.00    0.000    0.000     257.3    127.4    0.59   123.9     243.4     130.6     123.9      98.2      83.2      59.4    0.000     0.000     0.000     0.000     0.000    0.59     0.00    0.00      0   -9.90   -9.00       15.8       21.8       21.7       22.0       22.0       22.0       22.0       22.0       22.0       22.0       22.0       22.0        0.0        0.0        0.0        0.0        0.0        0.0        0.0        0.0        0.0        0.0        0.0        0.0      0.0       6.5      20.7      28.8      36.8    362.74
    14     3  1996    53     2     250.7     0.0      0.0    0.0    0.0    0.0      0.0      0.0   -9.90      1.5      1.5    100      5.1      5.1   100      6.6     6.6     100     17.0    0.60      0      0      0      0      0    65.9    65.9      0     0.82      5.1      5.1      5.1   100    17.7     2.372    -9.9    0.000    0.000      92        0.00    0.000    0.000     250.7    120.9    0.60   118.5     245.6     131.8     124.2      98.4      83.4      59.9    0.000     0.000     0.000     0.000     0.000    0.60     0.00    0.00      0   -9.90   -9.00        9.8       21.2       21.7       22.0       22.0       22.0       22.0       22.0       22.0       22.0       22.0       22.0        0.0        0.0        0.0        0.0        0.0        0.0        0.0        0.0        0.0        0.0        0.0        0.0      0.0       6.2      20.0      28.8      37.5    362.74
    15     3  1996    54     2     244.1     0.0      0.0    0.0    0.0    0.0      0.0      0.0   -9.90      1.4      1.4    100      5.2      5.2   100      6.7     6.7     100     17.5    0.60      4      0      0      0      0    67.0    67.0      0     0.83      5.2      5.2      5.2   100    17.7     2.520    -9.9    0.000    0.000      92        0.00    0.000    0.000     244.1    114.2    0.60   113.0     247.8     133.0     125.6      99.5      84.3      60.4    0.000     0.000     0.000     0.000     0.000    0.60     0.00    0.00      0   -9.90   -9.00        8.4       17.0       20.7       22.0       22.0       22.0       22.0       22.0       22.0       22.0       22.0       22.0        0.0        0.0        0.0        0.0        0.0        0.0        0.0        0.0        0.0        0.0        0.0        0.0      0.0       6.3      21.0      29.0      37.0    362.74
    16     3  1996    55     2     236.0     0.0      0.0    0.0    0.0    0.0      0.0      0.0   -9.90      1.9      1.0     54      7.0      7.0   100      8.9     8.1      90     16.8    0.61     25      0      0      0      0    67.7    67.7      0     0.84      7.0      7.0      7.0   100    17.7     2.668    -9.9    0.000    0.000      92        0.00    0.000    0.000     236.0    106.1    0.61   106.1     249.9     134.1     132.5     104.9      88.6      61.0    0.000     0.000     0.000     0.000     0.000    0.61     0.00    0.00      0   -9.90   -9.00        7.4       12.8       17.8       22.0       22.0       22.0       22.0       22.0       22.0       22.0       22.0       22.0        0.0        0.0        0.0        0.0        0.0        0.0        0.0        0.0        0.0        0.0        0.0        0.0      0.0       8.4      19.5      28.5      37.5    362.74
    17     3  1996    56     2     265.3     0.0     36.9    0.0   36.9    0.0      0.0      0.0   -9.90      1.5      1.5    100      6.1      6.1   100      7.6     7.6     100     16.8    0.61      0      0      0      0      0    68.6    68.6      0     0.85      6.1      6.1      6.1   100    17.7     2.818    -9.9    0.000    0.000      93        0.00    0.000    0.000     265.3    135.4    0.61   135.4     249.9     134.1     129.2     102.3      86.6      61.0    0.000     0.000     0.000     0.000     0.000    0.61     0.00    0.00      0   -9.90   -9.00       34.5       15.0       17.8       22.0       22.0       22.0       22.0       22.0       22.0       22.0       22.0       22.0        0.0        0.0        0.0        0.0        0.0        0.0        0.0        0.0        0.0        0.0        0.0        0.0      0.0       7.2      19.5      28.0      36.5    362.74
    18     3  1996    57     2     256.3     0.0      0.0    0.0    0.0    0.0      0.4      0.0   -9.90      1.7      1.7    100      6.9      6.9   100      8.6     8.6     100     15.8    0.61      0      0      0      0      0    69.4    69.4      0     0.85      6.9      6.9      6.9   100    17.7     2.969    -9.9    0.000    0.000      93        0.00    0.000    0.000     256.3    126.4    0.61   126.4     249.9     134.1     131.6     104.3      88.1      61.0    0.000     0.000     0.000     0.000     0.000    0.61     0.00    0.00      0   -9.90   -9.00       15.7       20.4       22.0       22.0       22.0       22.0       22.0       22.0       22.0       22.0       22.0       22.0        0.0        0.0        0.0        0.0        0.0        0.0        0.0        0.0        0.0        0.0        0.0        0.0      0.0       8.1      17.5      27.2      37.0    362.74
    19     3  1996    58     2     250.4     0.0      0.0    0.0    0.0    0.0      0.1      0.0   -9.90      1.1      1.1    100      4.7      4.7   100      5.8     5.8     100     15.6    0.61      0      0      0      0      0    70.1    70.1      0     0.86      4.7      4.7      4.7   100    17.7     3.120    -9.9    0.000    0.000      93        0.00    0.000    0.000     250.4    120.5    0.61   120.5     249.9     134.1     124.5      98.6      83.7      61.0    0.000     0.000     0.000     0.000     0.000    0.61     0.00    0.00      0   -9.90   -9.00        9.9       20.4       22.0       22.0       22.0       22.0       22.0       22.0       22.0       22.0       22.0       22.0        0.0        0.0        0.0        0.0        0.0        0.0        0.0        0.0        0.0        0.0        0.0        0.0      0.0       5.5      17.2      26.1      35.0    362.74
    20     3  1996    59     3     245.7     0.0      0.0    0.0    0.0    0.0      0.0      0.0   -9.90      0.9      0.9    100      3.8      3.8   100      4.7     4.7     100     16.8    0.61      1      0      0      0      0    70.6    70.6      0     0.86      3.8      3.8      3.8   100    17.7     3.273    -9.9    0.000    0.000      93        0.00    0.000    0.000     245.7    115.8    0.61   115.8     249.9     134.1     121.5      96.2      81.9      61.0    0.000     0.000     0.000     0.000     0.000    0.61     0.00    0.00      0   -9.90   -9.00        9.1       16.6       22.0       22.0       22.0       22.0       22.0       22.0       22.0       22.0       22.0       22.0        0.0        0.0        0.0        0.0        0.0        0.0        0.0        0.0        0.0        0.0        0.0        0.0      0.0       4.4      19.5      26.5      33.5    362.74
    21     3  1996    60     3     238.7     0.0      0.0    0.0    0.0    0.0      0.0      0.0   -9.90      1.3      1.3    100      5.7      5.7   100      7.0     7.0     100     18.2    0.61     11      0      0      0      0    71.1    71.1      0     0.87      5.7      5.7      5.7   100    17.7     3.426    -9.9    0.000    0.000      94        0.00    0.000    0.000     238.7    108.8    0.61   108.8     249.9     134.1     127.5     101.0      85.6      61.0    0.000     0.000     0.000     0.000     0.000    0.61     0.00    0.00      0   -9.90   -9.00        7.8       12.4       20.5       22.0       22.0       22.0       22.0       22.0       22.0       22.0       22.0       22.0        0.0        0.0        0.0        0.0        0.0        0.0        0.0        0.0        0.0        0.0        0.0        0.0      0.0       6.6      22.5      29.8      37.0    362.74
    22     3  1996    61     3     263.2     0.0     32.3    0.0   32.3    0.0      0.0      0.0   -9.90      1.4      1.4    100      6.4      6.4   100      7.8     7.8     100     17.2    0.61      0      0      0      0      0    71.6    71.6      0     0.87      6.4      6.4      6.4   100    17.7     3.580    -9.9    0.000    0.000      94        0.00    0.000    0.000     263.2    133.3    0.61   133.3     249.9     134.1     129.7     102.7      86.9      61.0    0.000     0.000     0.000     0.000     0.000    0.61     0.00    0.00      0   -9.90   -9.00       33.7       11.0       20.5       22.0       22.0       22.0       22.0       22.0       22.0       22.0       22.0       22.0        0.0        0.0        0.0        0.0        0.0        0.0        0.0        0.0        0.0        0.0        0.0        0.0      0.0       7.4      20.5      28.8      37.0    362.74
    23     3  1996    62     3     256.0     0.0      0.0    0.0    0.0    0.0      0.0      0.0   -9.90      1.3      1.3    100      5.9      5.9   100      7.2     7.2     100     16.9    0.61      0      0      0      0      0    72.0    72.0      0     0.87      5.9      5.9      5.9   100    17.7     3.735     1.5    0.056    1.124      94        0.02    0.000    0.000     256.0    126.1    0.61   126.1     249.9     134.1     128.1     101.4      85.9      61.0    0.000     0.000     0.000     0.000     0.000    0.61     0.00    0.00      0   -9.90   -9.00       16.2       21.1       20.7       22.0       22.0       22.0       22.0       22.0       22.0       22.0       22.0       22.0        0.0        0.0        0.0        0.0        0.0        0.0        0.0        0.0        0.0        0.0        0.0        0.0      0.0       6.8      19.8      28.4      37.0    362.74
    24     3  1996    63     3     249.2     0.0      0.0    0.0    0.0    0.0      0.0      0.0   -9.90      1.2      1.2    100      5.6      5.6   100      6.8     6.8     100     17.3    0.61      0      0      0      0      0    72.4    72.4      0     0.88      5.6      5.6      5.6   100    17.7     3.890     1.7    0.067    1.341      94        0.03    0.000    0.000     249.2    119.3    0.61   119.3     249.9     134.1     127.0     100.6      85.2      61.0    0.000     0.000     0.000     0.000     0.000    0.61     0.00    0.00      0   -9.90   -9.00       10.3       20.2       20.7       22.0       22.0       22.0       22.0       22.0       22.0       22.0       22.0       22.0        0.0        0.0        0.0        0.0        0.0        0.0        0.0        0.0        0.0        0.0        0.0        0.0      0.0       6.4      20.6      29.3      38.0    362.74
    25     3  1996    64     3     243.6     0.0      0.0    0.0    0.0    0.0      0.0      0.0   -9.90      1.0      1.0    100      4.7      4.7   100      5.6     5.6     100     17.2    0.61      3      0      0      0      0    72.7    72.7      0     0.88      4.7      4.7      4.7   100    17.7     4.045     2.0    0.080    1.596      94        0.03    0.000    0.000     243.6    113.7    0.61   113.7     249.9     134.1     124.0      98.2      83.4      61.0    0.000     0.000     0.000     0.000     0.000    0.61     0.00    0.00      0   -9.90   -9.00        9.3       16.0       20.3       22.0       22.0       22.0       22.0       22.0       22.0       22.0       22.0       22.0        0.0        0.0        0.0        0.0        0.0        0.0        0.0        0.0        0.0        0.0        0.0        0.0      0.0       5.3      20.5      29.0      37.5    362.74
    26     3  1996    65     3     236.5     0.0      0.0    0.0    0.0    0.0      0.0      0.0   -9.90      1.2      1.2    100      5.9      5.9   100      7.1     7.1     100     17.8    0.61     16      0      0      0      0    72.9    72.9      0     0.88      5.9      5.9      5.9   100    17.7     4.201     2.3    0.095    1.895      95        0.04    0.000    0.000     236.5    106.6    0.61   106.6     249.9     134.1     127.8     101.2      85.7      61.0    0.000     0.000     0.000     0.000     0.000    0.61     0.00    0.00      0   -9.90   -9.00        8.1       11.9       18.5       22.0       22.0       22.0       22.0       22.0       22.0       22.0       22.0       22.0        0.0        0.0        0.0        0.0        0.0        0.0        0.0        0.0        0.0        0.0        0.0        0.0      0.0       6.7      21.5      30.2      39.0    362.74
    27     3  1996    66     3     263.3     0.0     34.6    0.0   34.6    0.0      0.0      0.0   -9.90      1.3      1.3    100      6.5      6.5   100      7.8     7.8     100     18.0    0.61      0      0      0      0      0    73.1    73.1      0     0.88      6.5      6.5      6.5   100    17.7     4.357     2.6    0.112    2.247      95        0.04    0.000    0.000     263.3    133.4    0.61   133.4     249.9     134.1     129.7     102.7      86.9      61.0    0.000     0.000     0.000     0.000     0.000    0.61     0.00    0.00      0   -9.90   -9.00       34.7       12.0       18.5       22.0       22.0       22.0       22.0       22.0       22.0       22.0       22.0       22.0        0.0        0.0        0.0        0.0        0.0        0.0        0.0        0.0        0.0        0.0        0.0        0.0      0.0       7.4      22.0      30.8      39.5    362.74
    28     3  1996    67     3     255.4     0.0      0.0    0.0    0.0    0.0      0.0      0.0   -9.90      1.3      1.3    100      6.5      6.5   100      7.8     7.8     100     17.0    0.61      0      0      0      0      0    73.4    73.4      0     0.88      6.5      6.5      6.5   100    17.7     4.514     2.9    0.133    2.659      95        0.05    0.000    0.000     255.4    125.5    0.61   125.5     249.9     134.1     129.7     102.7      86.9      61.0    0.000     0.000     0.000     0.000     0.000    0.61     0.00    0.00      0   -9.90   -9.00       16.1       20.7       20.7       22.0       22.0       22.0       22.0       22.0       22.0       22.0       22.0       22.0        0.0        0.0        0.0        0.0        0.0        0.0        0.0        0.0        0.0        0.0        0.0        0.0      0.0       7.4      20.0      29.5      39.0    362.74
    29     3  1996    68     3     248.0     0.0      0.0    0.0    0.0    0.0      0.0      0.0   -9.90      1.2      1.2    100      6.2      6.2   100      7.4     7.4     100     18.0    0.61      2      0      0      0      0    73.6    73.6      0     0.89      6.2      6.2      6.2   100    17.7     4.670     3.4    0.157    3.139      95        0.06    0.000    0.000     248.0    118.1    0.61   118.1     249.9     134.1     128.6     101.9      86.2      61.0    0.000     0.000     0.000     0.000     0.000    0.61     0.00    0.00      0   -9.90   -9.00       10.2       19.1       20.7       22.0       22.0       22.0       22.0       22.0       22.0       22.0       22.0       22.0        0.0        0.0        0.0        0.0        0.0        0.0        0.0        0.0        0.0        0.0        0.0        0.0      0.0       7.0      22.0      30.5      39.0    362.74
    30     3  1996    69     3     240.6     0.0      0.0    0.0    0.0    0.0      0.0      0.0   -9.90      1.2      1.2    100      6.2      6.2   100      7.4     7.4     100     19.5    0.61     -9      0      0      0      0    74.1    74.1      0     0.89      6.2      6.2      6.2   100    17.7     4.828     3.8    0.185    3.700      95        0.07    0.000    0.000     240.6    110.7    0.61   110.7     249.9     134.1     128.6     101.9      86.2      61.0    0.000     0.000     0.000     0.000     0.000    0.61     0.00    0.00      0   -9.90   -9.00        9.1       14.9       18.7       22.0       22.0       22.0       22.0       22.0       22.0       22.0       22.0       22.0        0.0        0.0        0.0        0.0        0.0        0.0        0.0        0.0        0.0        0.0        0.0        0.0      0.0       7.0      25.0      32.2      39.5    362.74
    31     3  1996    70     3     264.2     0.0     30.8    0.0   30.8    0.0      0.0      0.0   -9.90      1.1      1.1    100      6.1      6.1   100      7.2     7.2     100     19.6    0.61     -9      0      0      0      0    74.2    74.2      0     0.89      6.1      6.1      6.1   100    17.7     4.986     4.4    0.218    4.351      95        0.08    0.000    0.000     264.2    134.3    0.61   134.3     249.9     134.1     128.1     101.4      85.9      61.0    0.000     0.000     0.000     0.000     0.000    0.61     0.00    0.00      0   -9.90   -9.00       33.7       13.9       18.7       22.0       22.0       22.0       22.0       22.0       22.0       22.0       22.0       22.0        0.0        0.0        0.0        0.0        0.0        0.0        0.0        0.0        0.0        0.0        0.0        0.0      0.0       6.8      25.2      32.1      39.0    362.74
     1     4  1996    71     3     257.2     0.0      0.0    0.0    0.0    0.0      0.0      0.0   -9.90      1.1      1.1    100      5.9      5.9   100      7.0     7.0     100     17.2    0.61     -9      0      0      0      0    74.3    74.3      0     0.89      5.9      5.9      5.9   100    17.7     5.143     5.0    0.255    5.105      95        0.09    0.000    0.000     257.2    127.3    0.61   127.3     249.9     134.1     127.5     101.0      85.6      61.0    0.000     0.000     0.000     0.000     0.000    0.61     0.00    0.00      0   -9.90   -9.00       16.3       21.4       21.5       22.0       22.0       22.0       22.0       22.0       22.0       22.0       22.0       22.0        0.0        0.0        0.0        0.0        0.0        0.0        0.0        0.0        0.0        0.0        0.0        0.0      0.0       6.6      20.5      29.2      38.0    362.74
     2     4  1996    72     3     250.4     0.0      0.0    0.0    0.0    0.0      0.0      0.0   -9.90      1.1      1.1    100      5.8      5.8   100      6.9     6.9     100     17.5    0.61     -9      0      0      0      0    74.4    74.4      0     0.89      5.8      5.8      5.8   100    17.7     5.301     5.6    0.299    5.976      96        0.10    0.000    0.000     250.4    120.5    0.61   120.5     249.9     134.1     127.3     100.8      85.4      61.0    0.000     0.000     0.000     0.000     0.000    0.61     0.00    0.00      0   -9.90   -9.00       10.5       20.4       21.5       22.0       22.0       22.0       22.0       22.0       22.0       22.0       22.0       22.0        0.0        0.0        0.0        0.0        0.0        0.0        0.0        0.0        0.0        0.0        0.0        0.0      0.0       6.5      21.0      29.0      37.0    362.74
     3     4  1996    73     3     243.5     0.0      0.0    0.0    0.0    0.0      0.0      0.0   -9.90      1.1      1.1    100      5.8      5.8   100      6.9     6.9     100     17.8    0.61     -9      0      0      0      0    74.5    74.5      0     0.89      5.8      5.8      5.8   100    17.7     5.459     6.4    0.349    6.978      96        0.11    0.000    0.000     243.5    113.6    0.61   113.6     249.9     134.1     127.3     100.8      85.4      61.0    0.000     0.000     0.000     0.000     0.000    0.61     0.00    0.00      0   -9.90   -9.00        9.4       16.1       20.0       22.0       22.0       22.0       22.0       22.0       22.0       22.0       22.0       22.0        0.0        0.0        0.0        0.0        0.0        0.0        0.0        0.0        0.0        0.0        0.0        0.0      0.0       6.5      21.5      29.2      37.0    362.74
     4     4  1996    74     3     235.2     0.0      0.0    0.0    0.0    0.0      0.0      0.0   -9.90      1.3      1.3    100      7.0      7.0   100      8.3     8.3     100     18.0    0.61     -9      0      0      0      0    74.5    74.5      0     0.89      7.0      7.0      7.0   100    17.7     5.616     7.2    0.406    8.127      96        0.13    0.000    0.000     235.2    105.3    0.61   105.3     249.9     134.1     131.1     103.8      87.7      61.0    0.000     0.000     0.000     0.000     0.000    0.61     0.00    0.00      0   -9.90   -9.00        8.1       12.0       17.0       22.0       22.0       22.0       22.0       22.0       22.0       22.0       22.0       22.0        0.0        0.0        0.0        0.0        0.0        0.0        0.0        0.0        0.0        0.0        0.0        0.0      0.0       7.9      22.0      29.0      36.0    362.74
     5     4  1996    75     3     264.4     0.0     37.2    0.0   37.2    0.0      0.0      0.0   -9.90      1.2      1.2    100      6.7      6.7   100      7.9     7.9     100     19.0    0.61     -9      0      0      0      0    74.6    74.6      0     0.89      6.7      6.7      6.7   100    17.7     5.774     8.2    0.472    9.439      96        0.15    0.000    0.000     264.4    134.5    0.61   134.5     249.9     134.1     130.0     103.0      87.1      61.0    0.000     0.000     0.000     0.000     0.000    0.61     0.00    0.00      0   -9.90   -9.00       34.8       14.6       17.0       22.0       22.0       22.0       22.0       22.0       22.0       22.0       22.0       22.0        0.0        0.0        0.0        0.0        0.0        0.0        0.0        0.0        0.0        0.0        0.0        0.0      0.0       7.5      24.0      30.0      36.0    362.74
     6     4  1996    76     3     255.6     0.0      0.0    0.0    0.0    0.0      0.0      0.0   -9.90      1.4      1.4    100      7.5      7.5   100      8.8     8.8     100     18.9    0.61     -9      0      0      0      0    74.7    74.7      0     0.89      7.5      7.5      7.5   100    17.7     5.931     9.2    0.547   10.931      96        0.16    0.000    0.000     255.6    125.7    0.61   125.7     249.9     134.1     132.5     104.9      88.6      61.0    0.000     0.000     0.000     0.000     0.000    0.61     0.00    0.00      0   -9.90   -9.00       16.0       19.9       21.7       22.0       22.0       22.0       22.0       22.0       22.0       22.0       22.0       22.0        0.0        0.0        0.0        0.0        0.0        0.0        0.0        0.0        0.0        0.0        0.0        0.0      0.0       8.4      23.8      29.9      36.0    362.74
     7     4  1996    77     3     249.7     0.0      0.0    0.0    0.0    0.0      0.0      0.0   -9.90      0.9      0.9    100      5.0      5.0   100      5.9     5.9     100     17.3    0.61     -9      0      0      0      0    74.7    74.7      0     0.89      5.0      5.0      5.0   100    17.7     6.088    10.4    0.631   12.619      96        0.19    0.000    0.000     249.7    119.8    0.61   119.8     249.9     134.1     124.8      98.8      83.9      61.0    0.000     0.000     0.000     0.000     0.000    0.61     0.00    0.00      0   -9.90   -9.00       10.3       19.7       21.7       22.0       22.0       22.0       22.0       22.0       22.0       22.0       22.0       22.0        0.0        0.0        0.0        0.0        0.0        0.0        0.0        0.0        0.0        0.0        0.0        0.0      0.0       5.6      20.6      27.8      35.0    362.74
     8     4  1996    78     3     242.2     0.0      0.0    0.0    0.0    0.0      0.0      0.0   -9.90      1.2      1.2    100      6.3      6.3   100      7.5     7.5     100     17.2    0.61     -9      0      0      0      0    74.7    74.7      0     0.89      6.3      6.3      6.3   100    17.7     6.245    11.6    0.726   14.518      96        0.21    0.000    0.000     242.2    112.3    0.61   112.3     249.9     134.1     128.9     102.1      86.4      61.0    0.000     0.000     0.000     0.000     0.000    0.61     0.00    0.00      0   -9.90   -9.00        9.1       15.5       19.6       22.0       22.0       22.0       22.0       22.0       22.0       22.0       22.0       22.0        0.0        0.0        0.0        0.0        0.0        0.0        0.0        0.0        0.0        0.0        0.0        0.0      0.0       7.1      20.5      28.2      36.0    362.74
     9     4  1996    79     3     265.2     0.0     29.2    0.0   29.2    0.0      0.0      0.0   -9.90      1.0      1.0    100      5.3      5.3   100      6.3     6.3     100     18.8    0.61     -9      0      0      0      0    74.8    74.8      0     0.89      5.3      5.3      5.3   100    17.7     6.402    12.9    0.829   16.570      96        0.24    0.000    0.000     265.2    135.3    0.61   135.3     249.9     134.1     125.9      99.7      84.6      61.0    0.000     0.000     0.000     0.000     0.000    0.61     0.00    0.00      0   -9.90   -9.00       32.4       15.2       19.6       22.0       22.0       22.0       22.0       22.0       22.0       22.0       22.0       22.0        0.0        0.0        0.0        0.0        0.0        0.0        0.0        0.0        0.0        0.0        0.0        0.0      0.0       6.0      23.5      30.8      38.0    362.74
    10     4  1996    80     3     272.6    15.4      0.0    0.0   14.6    0.8      0.4      0.0   -9.90      1.0      1.0    100      5.7      5.7   100      6.7     6.7     100     17.8    0.61     -9      0      0      0      0    74.8    74.8      0     0.89      5.7      5.7      5.7   100    17.7     6.559    14.3    0.935   18.704      96        0.26    0.000    0.000     272.6    142.7    0.61   142.7     249.9     134.1     127.0     100.6      85.2      61.0    0.000     0.000     0.000     0.000     0.000    0.61     0.00    0.00      0   -9.90   -9.00       30.8       21.6       22.2       22.0       22.0       22.0       22.0       22.0       22.0       22.0       22.0       22.0        0.0        0.0        0.0        0.0        0.0        0.0        0.0        0.0        0.0        0.0        0.0        0.0     15.4       6.4      21.5      29.5      37.5    362.74
    11     4  1996    81     3     260.4     0.3      0.0    0.0    0.3    0.0      6.5      0.0   -9.90      0.9      0.9     96      5.1      5.1   100      6.1     6.0      99     17.5    0.61     -9      0      0      0      0    74.8    74.8      0     0.89      5.1      5.1      5.1   100    17.7     6.716    15.6    1.046   20.920      97        0.29    0.000    0.000     260.4    130.0    0.61   130.0     249.9     134.1     125.3      99.3      84.2      61.0    0.000     0.000     0.000     0.000     0.000    0.61     0.00    0.00      0   -9.90   -9.00       16.5       22.3       22.3       22.3       22.2       22.2       22.1       22.1       22.1       22.1       22.1       22.1        0.0        0.0        0.0        0.0        0.0        0.0        0.0        0.0        0.0        0.0        0.0        0.0      0.3       5.8      21.0      28.0      35.0    362.74
    12     4  1996    82     3     256.3     4.3      0.0    0.0    4.3    0.0      1.6      0.0   -9.90      1.1      1.1    100      5.8      5.8   100      6.8     6.8     100     17.2    0.61     -9      0      0      0      0    74.8    74.8      0     0.89      5.8      5.8      5.8   100    17.7     6.872    16.9    1.161   23.219      97        0.31    0.000    0.000     256.3    126.3    0.61   126.3     249.9     134.1     127.3     100.8      85.4      61.0    0.000     0.000     0.000     0.000     0.000    0.61     0.00    0.00      0   -9.90   -9.00       14.8       21.3       22.0       22.0       22.0       22.0       22.0       22.0       22.0       22.0       22.0       22.0        0.0        0.0        0.0        0.0        0.0        0.0        0.0        0.0        0.0        0.0        0.0        0.0      4.3       6.5      20.5      27.8      35.0    362.74
    13     4  1996    83     3     249.9     0.0      0.0    0.0    0.0    0.0      0.2      0.0   -9.90      1.0      1.0    100      5.2      5.2   100      6.2     6.2     100     17.9    0.61     -9      0      0      0      0    74.9    74.9      0     0.88      5.2      5.2      5.2   100    17.7     7.029    18.2    1.280   25.599      97        0.34    0.000    0.000     249.9    120.0    0.61   120.0     249.9     134.1     125.6      99.5      84.4      61.0    0.000     0.000     0.000     0.000     0.000    0.61     0.00    0.00      0   -9.90   -9.00        9.4       20.5       22.0       22.0       22.0       22.0       22.0       22.0       22.0       22.0       22.0       22.0        0.0        0.0        0.0        0.0        0.0        0.0        0.0        0.0        0.0        0.0        0.0        0.0      0.0       5.9      21.8      27.9      34.0    362.74
    14     4  1996    84     3     261.3    18.4      0.0    0.0   18.4    0.0      0.0      0.0   -9.90      1.1      1.1    100      5.9      5.9   100      7.0     7.0     100     16.3    0.61     -9      0      0      0      0    74.9    74.9      0     0.88      5.9      5.9      5.9   100    17.7     7.185    19.5    1.403   28.061      97        0.36    0.000    0.000     261.3    131.4    0.61   131.4     249.9     134.1     127.8     101.2      85.7      61.0    0.000     0.000     0.000     0.000     0.000    0.61     0.00    0.00      0   -9.90   -9.00       21.7       19.6       22.0       22.0       22.0       22.0       22.0       22.0       22.0       22.0       22.0       22.0        0.0        0.0        0.0        0.0        0.0        0.0        0.0        0.0        0.0        0.0        0.0        0.0     18.4       6.7      18.6      26.1      33.5    362.74
    15     4  1996    85     3     258.0     0.4      0.0    0.0    0.4    0.0      0.0      0.0   -9.90      0.6      0.6     99      3.1      3.1   100      3.7     3.6     100     16.8    0.61     -9      0      0      0      0    74.9    74.9      0     0.88      3.1      3.1      3.1   100    17.7     7.341    20.8    1.530   30.605      97        0.39    0.000    0.000     258.0    128.2    0.61   128.2     249.9     134.1     119.0      94.3      80.4      61.0    0.000     0.000     0.000     0.000     0.000    0.61     0.00    0.00      0   -9.90   -9.00       18.5       19.6       22.0       22.0       22.0       22.0       22.0       22.0       22.0       22.0       22.0       22.0        0.0        0.0        0.0        0.0        0.0        0.0        0.0        0.0        0.0        0.0        0.0        0.0      0.4       3.5      19.6      24.3      29.0    362.74
    16     4  1996    86     3     251.8     0.0      0.0    0.0    0.0    0.0      0.0      0.0   -9.90      1.0      0.6     54      5.6      5.6   100      6.7     6.2      93     17.2    0.61     -9      0      0      0      0    74.9    74.9      0     0.88      5.6      5.6      5.6   100    17.7     7.497    22.2    1.662   33.231      97        0.42    0.000    0.000     251.8    122.0    0.61   122.0     249.9     134.1     127.0     100.6      85.2      61.0    0.000     0.000     0.000     0.000     0.000    0.61     0.00    0.00      0   -9.90   -9.00       12.9       18.9       22.0       22.0       22.0       22.0       22.0       22.0       22.0       22.0       22.0       22.0        0.0        0.0        0.0        0.0        0.0        0.0        0.0        0.0        0.0        0.0        0.0        0.0      0.0       6.4      20.5      26.8      33.0    362.74
    17     4  1996    87     3     246.2     0.0      0.0    0.0    0.0    0.0      0.0      0.0   -9.90      1.0      0.2     20      5.5      5.5   100      6.5     5.7      88     17.8    0.61     -9      0      0      0      0    74.9    74.9      0     0.88      5.5      5.5      5.5   100    17.7     7.653    23.5    1.797   35.938      97        0.45    0.000    0.000     246.2    116.3    0.61   116.3     249.9     134.1     126.4     100.1      84.9      61.0    0.000     0.000     0.000     0.000     0.000    0.61     0.00    0.00      0   -9.90   -9.00        8.9       17.3       22.0       22.0       22.0       22.0       22.0       22.0       22.0       22.0       22.0       22.0        0.0        0.0        0.0        0.0        0.0        0.0        0.0        0.0        0.0        0.0        0.0        0.0      0.0       6.2      21.5      28.0      34.5    362.74
[...]
    19     4  1996    89     3     264.6     0.0     31.7    0.0   31.7    0.0      0.0      0.0   -9.90      1.1      1.1    100      5.8      5.8   100      6.9     6.9     100     18.9    0.61     -9      0      0      0      0    74.9    74.9      0     0.88      5.8      5.8      5.8   100    17.7     7.964    26.1    2.080   41.596      97        0.50    0.000    0.000     264.6    134.7    0.61   134.7     249.9     134.1     127.5     101.0      85.6      61.0    0.000     0.000     0.000     0.000     0.000    0.61     0.00    0.00      0   -9.90   -9.00       34.5       12.2       19.9       22.0       22.0       22.0       22.0       22.0       22.0       22.0       22.0       22.0        0.0        0.0        0.0        0.0        0.0        0.0        0.0        0.0        0.0        0.0        0.0        0.0      0.0       6.6      23.7      30.1      36.5    362.74
    20     4  1996    90     3     258.0     0.0      0.0    0.0    0.0    0.0      0.0      0.0   -9.90      1.0      1.0    100      5.6      5.6   100      6.7     6.7     100     19.2    0.61     -9      0      0      0      0    74.9    74.9      0     0.88      5.6      5.6      5.6   100    17.7     8.119    27.4    2.227   44.546      97        0.53    0.000    0.000     258.0    128.1    0.61   128.1     249.9     134.1     127.0     100.6      85.2      61.0    0.000     0.000     0.000     0.000     0.000    0.61     0.00    0.00      0   -9.90   -9.00       16.4       21.6       22.0       22.0       22.0       22.0       22.0       22.0       22.0       22.0       22.0       22.0        0.0        0.0        0.0        0.0        0.0        0.0        0.0        0.0        0.0        0.0        0.0        0.0      0.0       6.4      24.5      30.8      37.0    362.74
    21     4  1996    91     3     251.9     1.6      0.0    0.0    1.6    0.0      0.0      0.0   -9.90      1.2      1.2    100      6.5      6.5   100      7.7     7.7     100     19.5    0.61     -9      0      0      0      0    75.0    75.0      0     0.88      6.5      6.5      6.5   100    17.7     8.275    28.7    2.379   47.578      97        0.56    0.000    0.000     251.9    122.0    0.61   122.0     249.9     134.1     129.7     102.7      86.9      61.0    0.000     0.000     0.000     0.000     0.000    0.61     0.00    0.00      0   -9.90   -9.00       11.8       20.1       22.0       22.0       22.0       22.0       22.0       22.0       22.0       22.0       22.0       22.0        0.0        0.0        0.0        0.0        0.0        0.0        0.0        0.0        0.0        0.0        0.0        0.0      1.6       7.4      25.0      31.7      38.4    362.74
    22     4  1996    92     3     246.3     0.0      0.0    0.0    0.0    0.0      0.0      0.0   -9.90      0.9      0.6     64      5.0      5.0   100      5.9     5.6      94     17.8    0.61     -9      0      0      0      0    75.0    75.0      0     0.88      5.0      5.0      5.0   100    17.7     8.430    30.1    2.535   50.690      97        0.58    0.000    0.000     246.3    116.4    0.61   116.4     249.9     134.1     125.1      99.1      84.1      61.0    0.000     0.000     0.000     0.000     0.000    0.61     0.00    0.00      0   -9.90   -9.00        8.9       17.4       22.0       22.0       22.0       22.0       22.0       22.0       22.0       22.0       22.0       22.0        0.0        0.0        0.0        0.0        0.0        0.0        0.0        0.0        0.0        0.0        0.0        0.0      0.0       5.7      21.5      28.2      35.0    362.74
    23     4  1996    93     3     239.5     0.0      0.0    0.0    0.0    0.0      0.0      0.0   -9.90      1.2      0.2     14      6.7      6.7   100      7.9     6.8      87     19.2    0.61     -9      0      0      0      0    75.0    75.0      0     0.88      6.7      6.7      6.7   100    17.7     8.585    31.4    2.694   53.883      97        0.61    0.000    0.000     239.5    109.6    0.61   109.6     249.9     134.1     130.3     103.2      87.2      61.0    0.000     0.000     0.000     0.000     0.000    0.61     0.00    0.00      0   -9.90   -9.00        8.7       13.2       19.6       22.0       22.0       22.0       22.0       22.0       22.0       22.0       22.0       22.0        0.0        0.0        0.0        0.0        0.0        0.0        0.0        0.0        0.0        0.0        0.0        0.0      0.0       7.6      24.5      31.2      38.0    362.74
    24     4  1996    94     3     266.0     0.0     32.4    0.0   32.4    0.0      0.0      0.0   -9.90      0.9      0.9    100      5.0      5.0   100      5.9     5.9     100     18.8    0.61     -9      0      0      0      0    75.0    75.0      0     0.87      5.0      5.0      5.0   100    17.7     8.739    32.7    2.858   57.157      97        0.64    0.000    0.000     266.0    136.1    0.61   136.1     249.9     134.1     125.1      99.1      84.1      61.0    0.000     0.000     0.000     0.000     0.000    0.61     0.00    0.00      0   -9.90   -9.00       35.1       13.3       19.6       22.0       22.0       22.0       22.0       22.0       22.0       22.0       22.0       22.0        0.0        0.0        0.0        0.0        0.0        0.0        0.0        0.0        0.0        0.0        0.0        0.0      0.0       5.7      23.5      29.5      35.5    362.74
    25     4  1996    95     3     257.7     0.0      0.0    0.0    0.0    0.0      1.0      0.0   -9.90      1.1      1.1    100      6.1      6.1   100      7.2     7.2     100     18.8    0.61     -9      0      0      0      0    75.0    75.0      0     0.87      6.1      6.1      6.1   100    17.7     8.894    34.0    3.026   60.511      97        0.67    0.000    0.000     257.7    127.8    0.61   127.8     249.9     134.1     128.6     101.9      86.2      61.0    0.000     0.000     0.000     0.000     0.000    0.61     0.00    0.00      0   -9.90   -9.00       16.3       21.2       22.1       22.0       22.0       22.0       22.0       22.0       22.0       22.0       22.0       22.0        0.0        0.0        0.0        0.0        0.0        0.0        0.0        0.0        0.0        0.0        0.0        0.0      0.0       7.0      23.6      30.8      38.0    362.74
    26     4  1996    96     3     249.3     0.0      0.0    0.0    0.0    0.0      0.2      0.0   -9.90      1.3      1.3    100      6.8      6.8   100      8.1     8.1     100     19.0    0.61     -9      0     -9      0      0    74.7    74.7      0     0.87      6.8      6.8      6.8   100    17.7     9.047    35.3    3.197   63.937      97        0.69    0.000    0.000     249.3    119.4    0.61   119.4     249.9     134.1     131.1     103.8      87.7      61.0    0.000     0.000     0.000     0.000     0.000    0.61     0.00    0.00      0   -9.90   -9.00       10.3       19.0       22.0       22.0       22.0       22.0       22.0       22.0       22.0       22.0       22.0       22.0        0.0        0.0        0.0        0.0        0.0        0.0        0.0        0.0        0.0        0.0        0.0        0.0      0.0       7.9      24.0      31.3      38.6    362.74
    27     4  1996    97     3     240.7     0.0      0.0    0.0    0.0    0.0      0.0      0.0   -9.90      1.4      1.4    100      7.2      7.2   100      8.6     8.6     100     18.8    0.61     -9      0     -9      0      0    74.3    74.3      0     0.86      7.2      7.2      7.2   100    17.7     9.199    36.7    3.372   67.435      97        0.72    0.000    0.000     240.7    110.8    0.61   110.8     249.9     134.1     132.5     104.9      88.6      61.0    0.000     0.000     0.000     0.000     0.000    0.61     0.00    0.00      0   -9.90   -9.00        9.0       14.8       19.0       22.0       22.0       22.0       22.0       22.0       22.0       22.0       22.0       22.0        0.0        0.0        0.0        0.0        0.0        0.0        0.0        0.0        0.0        0.0        0.0        0.0      0.0       8.4      23.6      31.7      39.8    362.74
    28     4  1996    98     3     264.9     0.0     31.9    0.0   31.9    0.0      0.0      0.0   -9.90      1.3      1.3    100      6.5      6.5   100      7.7     7.7     100     19.8    0.61     -9      0     -9      0      0    74.0    74.0      0     0.85      6.5      6.5      6.5   100    17.7     9.350    38.0    3.550   71.003      97        0.74    0.000    0.000     264.9    135.0    0.61   135.0     249.9     134.1     130.3     103.2      87.2      61.0    0.000     0.000     0.000     0.000     0.000    0.61     0.00    0.00      0   -9.90   -9.00       34.6       13.3       19.0       22.0       22.0       22.0       22.0       22.0       22.0       22.0       22.0       22.0        0.0        0.0        0.0        0.0        0.0        0.0        0.0        0.0        0.0        0.0        0.0        0.0      0.0       7.6      25.5      33.0      40.5    362.74
    29     4  1996    99     3     256.0     0.0      0.0    0.0    0.0    0.0      0.1      0.0   -9.90      1.5      1.5    100      7.3      7.3   100      8.7     8.7     100     19.2    0.61     -9      0     -9      0      0    73.6    73.6      0     0.84      7.3      7.3      7.3   100    17.7     9.499    39.3    3.732   74.639      98        0.77    0.000    0.000     256.0    126.1    0.61   126.1     249.9     134.1     133.0     105.3      88.9      61.0    0.000     0.000     0.000     0.000     0.000    0.61     0.00    0.00      0   -9.90   -9.00       15.9       20.0       22.0       22.0       22.0       22.0       22.0       22.0       22.0       22.0       22.0       22.0        0.0        0.0        0.0        0.0        0.0        0.0        0.0        0.0        0.0        0.0        0.0        0.0      0.0       8.6      24.5      32.6      40.8    362.74
    30     4  1996   100     3     247.1     0.0      0.0    0.0    0.0    0.0      0.0      0.0   -9.90      1.5      1.5    100      7.3      7.3   100      8.9     8.9     100     20.1    0.61     -9      0     -9      0      0    73.1    73.1      0     0.83      7.3      7.3      7.3   100    17.7     9.647    40.6    3.917   78.340      98        0.79    0.000    0.000     247.1    117.2    0.61   117.2     249.9     134.1     133.6     105.8      89.2      61.0    0.000     0.000     0.000     0.000     0.000    0.61     0.00    0.00      0   -9.90   -9.00       10.0       17.1       22.0       22.0       22.0       22.0       22.0       22.0       22.0       22.0       22.0       22.0        0.0        0.0        0.0        0.0        0.0        0.0        0.0        0.0        0.0        0.0        0.0        0.0      0.0       8.8      26.2      33.9      41.5    362.74
     1     5  1996   101     4     262.1     0.0     25.7    0.0   25.7    0.0      0.0      0.0   -9.90      1.9      1.9    100      8.9      8.9   100     10.8    10.8     100     20.2    0.61     -9      0     -9      0      0    72.7    72.7      0     0.82      8.9      8.9      8.9   100    17.7     9.792    41.9    4.105   82.105      98        0.81    0.000    0.000     262.1    132.2    0.61   132.2     249.9     134.1     134.1     110.1      92.5      61.0    0.000     0.000     0.000     0.000     0.000    0.61     0.00    0.00      0   -9.90   -9.00       28.9       13.2       22.0       22.0       22.0       22.0       22.0       22.0       22.0       22.0       22.0       22.0        0.0        0.0        0.0        0.0        0.0        0.0        0.0        0.0        0.0        0.0        0.0        0.0      0.0      10.8      26.5      34.5      42.5    362.74
     2     5  1996   102     4     253.5     0.0      0.0    0.0    0.0    0.0      0.0      0.0   -9.90      1.5      1.5    100      7.0      7.0   100      8.5     8.5     100     19.6    0.61     -9      0     -9      0      0    72.2    72.2      0     0.81      7.0      7.0      7.0   100    17.7     9.937    43.2    4.297   85.931      98        0.83    0.000    0.000     253.5    123.6    0.61   123.6     249.9     134.1     133.0     105.3      88.9      61.0    0.000     0.000     0.000     0.000     0.000    0.61     0.00    0.00      0   -9.90   -9.00       15.9       17.6       22.0       22.0       22.0       22.0       22.0       22.0       22.0       22.0       22.0       22.0        0.0        0.0        0.0        0.0        0.0        0.0        0.0        0.0        0.0        0.0        0.0        0.0      0.0       8.6      25.2      32.9      40.5    362.74
     3     5  1996   103     4     244.5     0.0      0.0    0.0    0.0    0.0      0.0      0.0   -9.90      1.7      1.7    100      7.4      7.4   100      9.1     9.1     100     18.8    0.61     -9      0     -9      0      0    71.7    71.7      0     0.80      7.4      7.4      7.4   100    17.7    10.079    44.6    4.491   89.816      98        0.86    0.000    0.000     244.5    114.6    0.61   114.6     249.9     134.1     134.1     106.6      89.9      61.0    0.000     0.000     0.000     0.000     0.000    0.61     0.00    0.00      0   -9.90   -9.00        9.9       14.6       22.0       22.0       22.0       22.0       22.0       22.0       22.0       22.0       22.0       22.0        0.0        0.0        0.0        0.0        0.0        0.0        0.0        0.0        0.0        0.0        0.0        0.0      0.0       9.2      23.5      31.6      39.6    362.74
     4     5  1996   104     4     263.0     0.0     28.6    0.0   28.6    0.0      0.0      0.0   -9.90      1.9      1.9    100      8.2      8.2   100     10.0    10.0     100     18.4    0.61     -9      0     -9      0      0    71.1    71.1      0     0.79      8.2      8.2      8.2   100    17.7    10.219    45.9    4.688   93.758      98        0.88    0.000    0.000     263.0    133.1    0.61   133.1     249.9     134.1     134.1     109.0      91.7      61.0    0.000     0.000     0.000     0.000     0.000    0.61     0.00    0.00      0   -9.90   -9.00       31.6       11.4       22.0       22.0       22.0       22.0       22.0       22.0       22.0       22.0       22.0       22.0        0.0        0.0        0.0        0.0        0.0        0.0        0.0        0.0        0.0        0.0        0.0        0.0      0.0      10.3      22.7      31.8      40.8    362.74
     5     5  1996   105     4     254.7     0.0      0.0    0.0    0.0    0.0      0.0      0.0   -9.90      1.6      1.6    100      6.7      6.7   100      8.3     8.3     100     17.0    0.61     -9      0     -9      0      0    70.4    70.4      0     0.78      6.7      6.7      6.7   100    17.7    10.357    47.2    4.888   97.752      98        0.90    0.000    0.000     254.7    124.8    0.61   124.8     249.9     134.1     133.0     105.3      88.9      61.0    0.000     0.000     0.000     0.000     0.000    0.61     0.00    0.00      0   -9.90   -9.00       15.8       18.9       22.0       22.0       22.0       22.0       22.0       22.0       22.0       22.0       22.0       22.0        0.0        0.0        0.0        0.0        0.0        0.0        0.0        0.0        0.0        0.0        0.0        0.0      0.0       8.6      20.0      30.0      40.0    362.74
     6     5  1996    -9     0     250.5     0.0      0.0    0.0    0.0    0.0      0.0      0.0   -9.90      5.3      4.1     79      0.0      0.0   100      5.3     4.1      79     18.5    0.61     -9     -9     -9      0     -9     0.0     0.0      0    -9.00      0.0      0.0      0.0   100    17.7    10.357    48.5    5.024  100.480      98        0.93    0.000    0.000     250.5    120.7    0.61   120.7     249.9     134.1     133.0     105.6      88.9      61.0    0.000     0.000     0.000     0.000     0.000    0.61     0.00    0.00      0   -9.90   -9.00       11.7       18.9       22.0       22.0       22.0       22.0       22.0       22.0       22.0       22.0       22.0       22.0        0.0        0.0        0.0        0.0        0.0        0.0        0.0        0.0        0.0        0.0        0.0        0.0      0.0       8.7      23.0      31.8      40.6    362.74
     7     5  1996    -9     0     247.9     0.0      0.0    0.0    0.0    0.0      0.0      0.0   -9.90     10.6      2.6     25      0.0      0.0   100     10.6     2.6      25     18.9    0.61     -9     -9     -9      0     -9     0.0     0.0      0    -9.00      0.0      0.0      0.0   100    17.7    10.357    49.0    5.075  101.497      98        0.94    0.000    0.000     247.9    118.0    0.61   118.0     249.9     134.1     133.0     107.5      88.9      61.0    0.000     0.000     0.000     0.000     0.000    0.61     0.00    0.00      0   -9.90   -9.00        9.1       18.9       22.0       22.0       22.0       22.0       22.0       22.0       22.0       22.0       22.0       22.0        0.0        0.0        0.0        0.0        0.0        0.0        0.0        0.0        0.0        0.0        0.0        0.0      0.0       9.6      23.8      32.2      40.6    362.74
     8     5  1996    -9     0     246.3     0.0      0.0    0.0    0.0    0.0      0.0      0.0   -9.90     11.0      1.7     15      0.0      0.0   100     11.0     1.7      15     19.5    0.61     -9     -9     -9      0     -9     0.0     0.0      0    -9.00      0.0      0.0      0.0   100    17.7    10.357    49.0    5.075  101.497      98        0.94    0.000    0.000     246.3    116.4    0.61   116.4     249.9     134.1     133.0     108.4      88.9      61.0    0.000     0.000     0.000     0.000     0.000    0.61     0.00    0.00      0   -9.90   -9.00        7.4       18.9       22.0       22.0       22.0       22.0       22.0       22.0       22.0       22.0       22.0       22.0        0.0        0.0        0.0        0.0        0.0        0.0        0.0        0.0        0.0        0.0        0.0        0.0      0.0      10.0      25.0      33.3      41.6    362.74
     9     5  1996    -9     0     245.1     0.0      0.0    0.0    0.0    0.0      0.0      0.0   -9.90     11.3      1.2     11      0.0      0.0   100     11.3     1.2      11     19.2    0.61     -9     -9     -9      0     -9     0.0     0.0      0    -9.00      0.0      0.0      0.0   100    17.7    10.357    49.0    5.075  101.497      98        0.94    0.000    0.000     245.1    115.2    0.61   115.2     249.9     134.1     133.0     109.0      88.9      61.0    0.000     0.000     0.000     0.000     0.000    0.61     0.00    0.00      0   -9.90   -9.00        6.2       18.9       22.0       22.0       22.0       22.0       22.0       22.0       22.0       22.0       22.0       22.0        0.0        0.0        0.0        0.0        0.0        0.0        0.0        0.0        0.0        0.0        0.0        0.0      0.0      10.3      24.5      33.1      41.8    362.74
    10     5  1996    -9     0     244.2     0.0      0.0    0.0    0.0    0.0      0.0      0.0   -9.90     11.1      0.9      8      0.0      0.0   100     11.1     0.9       8     19.8    0.61     -9     -9     -9      0     -9     0.0     0.0      0    -9.00      0.0      0.0      0.0   100    17.7    10.357    49.0    5.075  101.497      98        0.94    0.000    0.000     244.2    114.3    0.61   114.3     249.9     134.1     133.0     108.6      88.9      61.0    0.000     0.000     0.000     0.000     0.000    0.61     0.00    0.00      0   -9.90   -9.00        5.3       18.9       22.0       22.0       22.0       22.0       22.0       22.0       22.0       22.0       22.0       22.0        0.0        0.0        0.0        0.0        0.0        0.0        0.0        0.0        0.0        0.0        0.0        0.0      0.0      10.1      25.5      33.2      41.0    362.74
