AquaCrop 7.2 (August 2024) - Output created on (date) : 23-12-2024   at (time) : 03:31:28

   Day Month  Year   DAP Stage   WC(1.20)   Rain     Irri   Surf   Infilt   RO    Drain       CR    Zgwt       Ex       E     E/Ex     Trx       Tr  Tr/Trx    ETx      ET  ET/ETx      GD       Z     StExp  StSto  StSen StSalt StWeed   CC      CCw     StTr  Kc(Tr)     Trx       Tr      TrW  Tr/Trx   WP    Biomass     HI    Y(dry)  Y(fresh)  Brelative    WPet      Bin     Bout  WC(1.20) Wr(0.91)     Z       Wr    Wr(SAT)    Wr(FC)   Wr(exp)   Wr(sto)   Wr(sen)   Wr(PWP)    SaltIn    SaltOut   SaltUp   Salt(1.20)  SaltZ     Z       ECe    ECsw   StSalt  Zgwt    ECgw       WC01       WC 2       WC 3       WC 4       WC 5       WC 6       WC 7       WC 8       WC 9       WC10       WC11       WC12      ECe01      ECe 2      ECe 3      ECe 4      ECe 5      ECe 6      ECe 7      ECe 8      ECe 9      ECe10      ECe11      ECe12     Rain       ETo      Tmin      Tavg      Tmax      CO2
                                      mm      mm       mm     mm     mm     mm       mm       mm      m        mm       mm     %        mm       mm    %        mm      mm       %  degC-day     m       %      %      %      %      %      %       %       %       -        mm       mm       mm    %     g/m2    ton/ha      %    ton/ha   ton/ha       %       kg/m3   ton/ha   ton/ha      mm       mm       m       mm        mm        mm        mm        mm        mm         mm    ton/ha    ton/ha    ton/ha    ton/ha    ton/ha     m      dS/m    dS/m      %     m      dS/m       0.05       0.15       0.25       0.35       0.45       0.55       0.65       0.75       0.85       0.95       1.05       1.15       0.05       0.15       0.25       0.35       0.45       0.55       0.65       0.75       0.85       0.95       1.05       1.15       mm        mm     degC      degC      degC       ppm
     7     2  1997     1     1     267.4     0.0      8.0    0.0    8.0    0.0      0.0      0.0   -9.90      4.6      4.6    100      0.0      0.0   100      4.6     4.6     100     17.4    0.30     -9     -9     -9      0     -9     0.0     0.0      0    -9.00      0.0      0.0      0.0   100     0.0     0.000    -9.9    0.000    0.000      -9        0.00    0.000    0.000     267.4    204.6    0.30    69.4     123.0      66.0      60.6      47.6      40.8      30.0    0.077     0.000     0.000     0.077     0.077    0.30     0.10    0.16      0   -9.90   -9.00       25.4       22.0       22.0       22.0       22.0       22.0       22.0       22.0       22.0       22.0       22.0       22.0        0.3        0.0        0.0        0.0        0.0        0.0        0.0        0.0        0.0        0.0        0.0        0.0      0.0       4.6      20.9      25.9      30.9    363.88
     8     2  1997     2     1     261.7     0.1      0.0    0.0    0.1    0.0      2.4      0.0   -9.90      4.6      3.4     76      0.0      0.0   100      4.6     3.4      76     18.1    0.30     -9     -9     -9      0     -9     0.0     0.0      0    -9.00      0.0      0.0      0.0   100     0.0     0.000    -9.9    0.000    0.000      -9        0.00    0.000    0.000     261.7    198.8    0.30    63.2     123.0      66.0      60.6      47.5      40.8      30.0    0.000     0.000     0.000     0.077     0.076    0.30     0.10    0.20      0   -9.90   -9.00       18.8       22.2       22.1       22.1       22.1       22.1       22.1       22.0       22.0       22.0       22.0       22.0        0.2        0.1        0.0        0.0        0.0        0.0        0.0        0.0        0.0        0.0        0.0        0.0      0.1       4.5      22.2      26.1      30.0    363.88
     9     2  1997     3     1     257.6     0.1      0.0    0.0    0.1    0.0      0.7      0.0   -9.90      4.8      3.5     73      0.0      0.0   100      4.8     3.5      73     19.1    0.30     -9     -9     -9      0     -9     0.0     0.0      0    -9.00      0.0      0.0      0.0   100     0.0     0.000    -9.9    0.000    0.000      -9        0.00    0.000    0.000     257.6    194.7    0.30    59.5     123.0      66.0      60.6      47.8      40.8      30.0    0.000     0.000     0.000     0.077     0.075    0.30     0.10    0.22      0   -9.90   -9.00       15.4       22.0       22.0       22.0       22.0       22.0       22.0       22.0       22.0       22.0       22.0       22.0        0.2        0.1        0.0        0.0        0.0        0.0        0.0        0.0        0.0        0.0        0.0        0.0      0.1       4.8      24.3      27.6      30.9    363.88
    10     2  1997     4     1     254.2     0.1      0.0    0.0    0.1    0.0      0.1      0.0   -9.90      4.8      3.4     72      0.0      0.0   100      4.8     3.4      72     19.0    0.30     -9     -9     -9      0     -9     0.0     0.0      0    -9.00      0.0      0.0      0.0   100     0.0     0.000    -9.9    0.000    0.000      -9        0.00    0.000    0.000     254.2    191.3    0.30    56.1     123.0      66.0      60.6      47.8      40.8      30.0    0.000     0.000     0.000     0.077     0.075    0.30     0.09    0.26      0   -9.90   -9.00       12.1       22.0       22.0       22.0       22.0       22.0       22.0       22.0       22.0       22.0       22.0       22.0        0.2        0.1        0.0        0.0        0.0        0.0        0.0        0.0        0.0        0.0        0.0        0.0      0.1       4.8      24.0      27.0      30.0    363.88
    11     2  1997     5     1     252.2     0.0      0.0    0.0    0.0    0.0      0.0      0.0   -9.90      4.8      1.9     40      0.0      0.0   100      4.8     1.9      40     18.1    0.30     -9     -9     -9      0     -9     0.0     0.0      0    -9.00      0.0      0.0      0.0   100     0.0     0.000    -9.9    0.000    0.000      -9        0.00    0.000    0.000     252.2    189.4    0.30    54.2     123.0      66.0      60.6      47.8      40.8      30.0    0.000     0.000     0.000     0.077     0.074    0.30     0.09    0.28      0   -9.90   -9.00       10.2       22.0       22.0       22.0       22.0       22.0       22.0       22.0       22.0       22.0       22.0       22.0        0.1        0.1        0.0        0.0        0.0        0.0        0.0        0.0        0.0        0.0        0.0        0.0      0.0       4.8      22.1      25.8      29.5    363.88
    12     2  1997     6     1     251.0     1.1      0.0    0.0    1.1    0.0      0.0      0.0   -9.90      5.1      2.3     45      0.0      0.0   100      5.1     2.3      45     18.9    0.30     -9     -9     -9      0     -9     0.0     0.0      0    -9.00      0.0      0.0      0.0   100     0.0     0.000    -9.9    0.000    0.000      -9        0.00    0.000    0.000     251.0    188.2    0.30    53.0     123.0      66.0      60.6      47.6      40.8      30.0    0.000     0.000     0.000     0.077     0.073    0.30     0.09    0.29      0   -9.90   -9.00        9.0       22.0       22.0       22.0       22.0       22.0       22.0       22.0       22.0       22.0       22.0       22.0        0.1        0.1        0.0        0.0        0.0        0.0        0.0        0.0        0.0        0.0        0.0        0.0      1.1       4.7      23.9      27.0      30.1    363.88
    13     2  1997     7     1     249.8     0.1      0.0    0.0    0.1    0.0      0.0      0.0   -9.90      5.4      1.3     24      0.0      0.0   100      5.4     1.3      24     19.2    0.30     -9     -9     -9      0     -9     0.0     0.0      0    -9.00      0.0      0.0      0.0   100     0.0     0.000    -9.9    0.000    0.000      -9        0.00    0.000    0.000     249.8    187.0    0.30    51.8     123.0      66.0      60.6      47.9      40.8      30.0    0.000     0.000     0.000     0.077     0.072    0.30     0.09    0.30      0   -9.90   -9.00        7.8       22.0       22.0       22.0       22.0       22.0       22.0       22.0       22.0       22.0       22.0       22.0        0.1        0.1        0.0        0.0        0.0        0.0        0.0        0.0        0.0        0.0        0.0        0.0      0.1       4.9      24.5      27.4      30.4    363.88
    14     2  1997     8     1     253.1     0.0      8.0    0.0    8.0    0.0      0.0      0.0   -9.90      4.7      4.7    100      0.0      0.0   100      4.7     4.7     100     18.4    0.30     -9     -9     -9      0     -9     0.0     0.0      0    -9.00      0.0      0.0      0.0   100     0.0     0.000    -9.9    0.000    0.000      -9        0.00    0.000    0.000     253.1    190.2    0.30    55.1     123.0      66.0      60.6      47.8      40.8      30.0    0.077     0.000     0.000     0.154     0.148    0.30     0.19    0.57      0   -9.90   -9.00       11.1       22.0       22.0       22.0       22.0       22.0       22.0       22.0       22.0       22.0       22.0       22.0        0.4        0.2        0.1        0.0        0.0        0.0        0.0        0.0        0.0        0.0        0.0        0.0      0.0       4.8      22.9      26.4      29.8    363.88
    15     2  1997     9     1     250.7     0.0      0.0    0.0    0.0    0.0      0.0      0.0   -9.90      4.9      2.3     48      0.0      0.0   100      4.9     2.3      48     18.8    0.32     -9     -9     -9      0     -9     0.0     0.0      0    -9.00      0.0      0.0      0.0   100     0.0     0.000    -9.9    0.000    0.000      -9        0.00    0.000    0.000     250.7    187.9    0.32    57.0     131.0      70.3      64.5      51.0      43.4      31.9    0.000     0.000     0.000     0.154     0.148    0.32     0.18    0.61      0   -9.90   -9.00        8.7       22.0       22.0       22.0       22.0       22.0       22.0       22.0       22.0       22.0       22.0       22.0        0.3        0.2        0.1        0.0        0.0        0.0        0.0        0.0        0.0        0.0        0.0        0.0      0.0       4.9      23.6      27.0      30.4    363.88
    16     2  1997    10     1     249.7     0.0      0.0    0.0    0.0    0.0      0.0      0.0   -9.90      4.9      1.1     22      0.0      0.0   100      4.9     1.1      22     18.1    0.34     -9     -9     -9      0     -9     0.0     0.0      0    -9.00      0.0      0.0      0.0   100     0.0     0.000    -9.9    0.000    0.000      -9        0.00    0.000    0.000     249.7    186.8    0.34    61.0     140.4      75.4      69.2      54.8      46.6      34.3    0.000     0.000     0.000     0.154     0.148    0.34     0.16    0.58      0   -9.90   -9.00        7.7       22.0       22.0       22.0       22.0       22.0       22.0       22.0       22.0       22.0       22.0       22.0        0.3        0.2        0.1        0.0        0.0        0.0        0.0        0.0        0.0        0.0        0.0        0.0      0.0       5.0      22.3      26.6      31.0    363.88
    17     2  1997    11     1     248.9     0.0      0.0    0.0    0.0    0.0      0.0      0.0   -9.90      4.6      0.8     17      0.0      0.0   100      4.6     0.8      17     17.9    0.36     -9     -9     -9      0     -9     0.0     0.0      0    -9.00      0.0      0.0      0.0   100     0.0     0.000    -9.9    0.000    0.000      -9        0.00    0.000    0.000     248.9    186.0    0.36    64.9     149.2      80.0      73.5      57.8      49.5      36.4    0.000     0.000     0.000     0.154     0.148    0.36     0.16    0.55      0   -9.90   -9.00        6.9       22.0       22.0       22.0       22.0       22.0       22.0       22.0       22.0       22.0       22.0       22.0        0.2        0.2        0.1        0.0        0.0        0.0        0.0        0.0        0.0        0.0        0.0        0.0      0.0       4.7      21.9      26.2      30.5    363.88
    18     2  1997    12     2     248.1     0.0      0.0    0.0    0.0    0.0      0.0      0.0   -9.90      4.8      0.7     14      0.1      0.1   100      4.9     0.8      16     18.0    0.38     -9      0      0      0      0     0.8     0.8      0     0.01      0.1      0.1      0.1   100    17.7     0.002    -9.9    0.000    0.000     100        0.00    0.000    0.000     248.1    185.3    0.38    68.5     157.3      84.4      77.4      61.3      52.1      38.4    0.000     0.000     0.000     0.154     0.149    0.38     0.15    0.53      0   -9.90   -9.00        6.2       21.9       22.0       22.0       22.0       22.0       22.0       22.0       22.0       22.0       22.0       22.0        0.2        0.2        0.1        0.0        0.0        0.0        0.0        0.0        0.0        0.0        0.0        0.0      0.0       4.9      22.0      26.8      31.6    363.88
    19     2  1997    13     2     247.5     0.1      0.0    0.0    0.1    0.0      0.0      0.0   -9.90      4.8      0.7     14      0.1      0.1   100      4.8     0.7      15     18.6    0.40     14      0      0      0      0     0.9     0.9      0     0.02      0.1      0.1      0.1   100    17.7     0.005    -9.9    0.000    0.000      99        0.00    0.000    0.000     247.5    184.6    0.40    72.0     165.0      88.5      81.1      64.2      54.6      40.2    0.000     0.000     0.000     0.154     0.150    0.40     0.14    0.50      0   -9.90   -9.00        5.6       21.9       22.0       22.0       22.0       22.0       22.0       22.0       22.0       22.0       22.0       22.0        0.2        0.3        0.1        0.0        0.0        0.0        0.0        0.0        0.0        0.0        0.0        0.0      0.1       4.9      23.2      27.0      30.9    363.88
    20     2  1997    14     2     246.9     0.0      0.0    0.0    0.0    0.0      0.0      0.0   -9.90      4.9      0.5     11      0.1      0.1   100      5.0     0.6      12     18.6    0.42     15      0      0      0      0     1.0     1.0      0     0.02      0.1      0.1      0.1   100    17.7     0.008    -9.9    0.000    0.000      98        0.00    0.000    0.000     246.9    184.0    0.42    75.3     172.4      92.5      84.9      67.3      57.2      42.0    0.000     0.000     0.000     0.154     0.149    0.42     0.14    0.48      0   -9.90   -9.00        5.1       21.8       22.0       22.0       22.0       22.0       22.0       22.0       22.0       22.0       22.0       22.0        0.2        0.3        0.1        0.0        0.0        0.0        0.0        0.0        0.0        0.0        0.0        0.0      0.0       5.0      23.2      27.7      32.2    363.88
    21     2  1997    15     2     250.9     1.2      8.0    0.0    9.2    0.0      0.0      0.0   -9.90      5.1      5.1    100      0.1      0.1   100      5.2     5.2     100     19.0    0.44      0      0      0      0      0     1.1     1.1      0     0.02      0.1      0.1      0.1   100    17.7     0.012    -9.9    0.000    0.000      97        0.00    0.000    0.000     250.9    188.1    0.44    83.2     179.4      96.3      87.8      69.5      59.1      43.8    0.077     0.000     0.000     0.230     0.226    0.44     0.20    0.61      0   -9.90   -9.00        9.2       21.7       22.0       22.0       22.0       22.0       22.0       22.0       22.0       22.0       22.0       22.0        0.4        0.3        0.1        0.0        0.0        0.0        0.0        0.0        0.0        0.0        0.0        0.0      1.2       4.7      24.0      27.9      31.9    363.88
    22     2  1997    16     2     249.7     0.9      0.0    0.0    0.9    0.0      0.0      0.0   -9.90      5.5      2.0     36      0.1      0.1   100      5.6     2.1      37     19.8    0.45      4      0      0      0      0     1.3     1.3      0     0.02      0.1      0.1      0.1   100    17.7     0.016    -9.9    0.000    0.000      97        0.00    0.000    0.000     249.7    186.9    0.45    85.6     186.2      99.9      92.0      72.9      61.9      45.4    0.000     0.000     0.000     0.230     0.226    0.45     0.19    0.61      0   -9.90   -9.00        8.1       21.6       22.0       22.0       22.0       22.0       22.0       22.0       22.0       22.0       22.0       22.0        0.4        0.3        0.1        0.1        0.0        0.0        0.0        0.0        0.0        0.0        0.0        0.0      0.9       5.1      25.5      29.4      33.4    363.88
    23     2  1997    17     2     248.7     0.1      0.0    0.0    0.1    0.0      0.0      0.0   -9.90      5.0      1.0     20      0.1      0.1   100      5.2     1.1      22     19.9    0.47      5      0      0      0      0     1.5     1.5      0     0.03      0.1      0.1      0.1   100    17.7     0.021    -9.9    0.000    0.000      96        0.00    0.000    0.000     248.7    185.9    0.47    88.1     192.8     103.4      94.3      74.7      63.5      47.0    0.000     0.000     0.000     0.230     0.226    0.47     0.18    0.60      0   -9.90   -9.00        7.2       21.4       22.0       22.0       22.0       22.0       22.0       22.0       22.0       22.0       22.0       22.0        0.3        0.3        0.1        0.1        0.0        0.0        0.0        0.0        0.0        0.0        0.0        0.0      0.1       4.7      25.9      28.4      30.8    363.88
    24     2  1997    18     2     247.7     0.0      0.0    0.0    0.0    0.0      0.0      0.0   -9.90      5.7      0.8     15      0.2      0.2   100      5.9     1.0      17     19.7    0.49      8      0      0      0      0     1.7     1.7      0     0.03      0.2      0.2      0.2   100    17.7     0.026    -9.9    0.000    0.000      96        0.00    0.000    0.000     247.7    184.9    0.49    90.5     199.1     106.9      98.9      78.3      66.5      48.6    0.000     0.000     0.000     0.230     0.227    0.49     0.18    0.59      0   -9.90   -9.00        6.4       21.3       22.0       22.0       22.0       22.0       22.0       22.0       22.0       22.0       22.0       22.0        0.3        0.3        0.2        0.1        0.0        0.0        0.0        0.0        0.0        0.0        0.0        0.0      0.0       5.3      25.4      28.0      30.7    363.88
    25     2  1997    19     2     246.9     1.0      0.0    0.0    1.0    0.0      0.0      0.0   -9.90      5.7      1.6     27      0.2      0.2   100      5.9     1.7      30     19.9    0.50      7      0      0      0      0     1.9     1.9      0     0.03      0.2      0.2      0.2   100    17.7     0.032    -9.9    0.000    0.000      95        0.00    0.000    0.000     246.9    184.1    0.50    93.1     205.3     110.2     101.9      80.7      68.6      50.1    0.000     0.000     0.000     0.230     0.227    0.50     0.17    0.58      0   -9.90   -9.00        5.9       21.1       22.0       22.0       22.0       22.0       22.0       22.0       22.0       22.0       22.0       22.0        0.2        0.3        0.2        0.1        0.0        0.0        0.0        0.0        0.0        0.0        0.0        0.0      1.0       5.3      25.7      28.2      30.8    363.88
    26     2  1997    20     2     246.2     0.0      0.0    0.0    0.0    0.0      0.0      0.0   -9.90      5.4      0.6     10      0.2      0.2   100      5.6     0.8      13     19.6    0.52      9      0      0      0      0     2.2     2.2      0     0.04      0.2      0.2      0.2   100    17.7     0.039    -9.9    0.000    0.000      95        0.00    0.000    0.000     246.2    183.4    0.52    95.6     211.4     113.4     104.4      82.7      70.3      51.6    0.000     0.000     0.000     0.230     0.227    0.52     0.17    0.57      0   -9.90   -9.00        5.3       20.9       22.0       22.0       22.0       22.0       22.0       22.0       22.0       22.0       22.0       22.0        0.2        0.4        0.2        0.1        0.0        0.0        0.0        0.0        0.0        0.0        0.0        0.0      0.0       5.1      25.1      28.0      30.9    363.88
    27     2  1997    21     2     245.5     0.0      0.0    0.0    0.0    0.0      0.0      0.0   -9.90      5.5      0.5      9      0.2      0.2   100      5.7     0.7      12     18.9    0.53      9      0      0      0      0     2.4     2.4      0     0.04      0.2      0.2      0.2   100    17.7     0.046    -9.9    0.000    0.000      94        0.00    0.000    0.000     245.5    182.7    0.53    98.1     217.3     116.6     107.6      85.2      72.4      53.0    0.000     0.000     0.000     0.230     0.227    0.53     0.16    0.54      0   -9.90   -9.00        5.0       20.5       22.0       22.0       22.0       22.0       22.0       22.0       22.0       22.0       22.0       22.0        0.2        0.4        0.2        0.1        0.0        0.0        0.0        0.0        0.0        0.0        0.0        0.0      0.0       5.2      23.8      27.6      31.5    363.88
    28     2  1997    22     2     248.4     0.0      8.0    0.0    8.0    0.0      0.0      0.0   -9.90      4.9      4.9    100      0.3      0.3   100      5.1     5.1     100     18.1    0.54      1      0      0      0      0     2.8     2.8      0     0.05      0.3      0.3      0.3   100    17.7     0.055    -9.9    0.000    0.000      93        0.00    0.000    0.000     248.4    185.5    0.54   104.0     223.0     119.7     110.3      87.4      74.2      54.4    0.077     0.000     0.000     0.307     0.303    0.54     0.21    0.67      0   -9.90   -9.00        8.1       20.2       22.0       22.0       22.0       22.0       22.0       22.0       22.0       22.0       22.0       22.0        0.4        0.4        0.2        0.1        0.0        0.0        0.0        0.0        0.0        0.0        0.0        0.0      0.0       5.2      22.1      27.0      31.9    363.88
     1     3  1997    23     2     246.4     0.0      0.0    0.0    0.0    0.0      0.0      0.0   -9.90      4.9      1.7     35      0.3      0.3   100      5.2     2.0      39     18.8    0.56      5      0      0      0      0     3.2     3.2      0     0.06      0.3      0.3      0.3   100    17.7     0.065    -9.9    0.000    0.000      93        0.00    0.000    0.000     246.4    183.5    0.56   105.1     228.7     122.7     113.0      89.5      76.0      55.8    0.000     0.000     0.000     0.307     0.303    0.56     0.21    0.72      0   -9.90   -9.00        6.4       19.9       22.0       22.0       22.0       22.0       22.0       22.0       22.0       22.0       22.0       22.0        0.4        0.4        0.2        0.1        0.0        0.0        0.0        0.0        0.0        0.0        0.0        0.0      0.0       5.1      23.5      27.7      31.9    363.88
     2     3  1997    24     2     245.5     0.0      0.0    0.0    0.0    0.0      0.0      0.0   -9.90      5.0      0.5     10      0.4      0.4   100      5.4     0.9      16     18.4    0.57      8      0      0      0      0     3.7     3.7      0     0.06      0.4      0.4      0.4   100    17.7     0.077    -9.9    0.000    0.000      92        0.00    0.000    0.000     245.5    182.7    0.57   107.2     234.2     125.7     116.5      92.3      78.4      57.1    0.000     0.000     0.000     0.307     0.303    0.57     0.20    0.70      0   -9.90   -9.00        5.9       19.6       22.0       22.0       22.0       22.0       22.0       22.0       22.0       22.0       22.0       22.0        0.3        0.4        0.2        0.1        0.0        0.0        0.0        0.0        0.0        0.0        0.0        0.0      0.0       5.4      22.9      27.9      33.0    363.88
     3     3  1997    25     2     244.7     0.0      0.0    0.0    0.0    0.0      0.0      0.0   -9.90      4.8      0.4      9      0.4      0.4   100      5.2     0.8      15     19.0    0.58      8      0      0      0      0     4.2     4.2      0     0.07      0.4      0.4      0.4   100    17.7     0.090    -9.9    0.000    0.000      92        0.00    0.000    0.000     244.7    181.9    0.58   109.3     239.7     128.6     118.7      94.0      79.9      58.5    0.000     0.000     0.000     0.307     0.304    0.58     0.20    0.68      0   -9.90   -9.00        5.5       19.2       22.0       22.0       22.0       22.0       22.0       22.0       22.0       22.0       22.0       22.0        0.3        0.4        0.2        0.1        0.0        0.0        0.0        0.0        0.0        0.0        0.0        0.0      0.0       5.2      24.0      27.8      31.5    363.88
     4     3  1997    26     2     243.9     0.1      0.0    0.0    0.1    0.0      0.0      0.0   -9.90      4.7      0.4      9      0.4      0.4   100      5.1     0.9      17     18.1    0.60      8      0      0      0      0     4.7     4.7      0     0.08      0.4      0.4      0.4   100    17.7     0.105    -9.9    0.000    0.000      91        0.00    0.000    0.000     243.9    181.1    0.60   111.4     245.0     131.5     121.1      95.9      81.5      59.8    0.000     0.000     0.000     0.307     0.304    0.60     0.19    0.66      0   -9.90   -9.00        5.1       18.8       22.0       22.0       22.0       22.0       22.0       22.0       22.0       22.0       22.0       22.0        0.3        0.4        0.3        0.1        0.1        0.0        0.0        0.0        0.0        0.0        0.0        0.0      0.1       5.2      22.3      26.6      30.8    363.88
     5     3  1997    27     2     243.1     0.0      0.0    0.0    0.0    0.0      0.0      0.0   -9.90      4.7      0.3      7      0.5      0.5   100      5.2     0.8      16     18.4    0.61      9      0      0      0      0     5.4     5.4      0     0.09      0.5      0.5      0.5   100    17.7     0.121    -9.9    0.000    0.000      90        0.00    0.000    0.000     243.1    180.3    0.61   113.4     250.3     134.3     123.8      98.1      83.3      61.0    0.000     0.000     0.000     0.307     0.304    0.61     0.19    0.63      0   -9.90   -9.00        5.0       18.1       22.0       22.0       22.0       22.0       22.0       22.0       22.0       22.0       22.0       22.0        0.2        0.4        0.3        0.1        0.1        0.0        0.0        0.0        0.0        0.0        0.0        0.0      0.0       5.2      22.9      27.0      31.2    363.88
     6     3  1997    28     2     242.3     0.0      0.0    0.0    0.0    0.0      0.0      0.0   -9.90      4.6      0.3      7      0.6      0.6   100      5.2     0.9      17     18.6    0.62      9      0      0      0      0     6.1     6.1      0     0.11      0.6      0.6      0.6   100    17.7     0.140    -9.9    0.000    0.000      90        0.00    0.000    0.000     242.3    179.4    0.62   115.3     255.4     137.1     126.4     100.1      85.1      62.3    0.000     0.000     0.000     0.307     0.304    0.62     0.19    0.60      0   -9.90   -9.00        5.0       17.3       22.0       22.0       22.0       22.0       22.0       22.0       22.0       22.0       22.0       22.0        0.2        0.4        0.3        0.1        0.1        0.0        0.0        0.0        0.0        0.0        0.0        0.0      0.0       5.2      23.2      27.9      32.6    363.88
     7     3  1997    29     2     244.3     0.0      8.0    0.0    8.0    0.0      0.0      0.0   -9.90      5.2      5.2    100      0.7      0.7   100      6.0     6.0     100     18.7    0.64      3      0      0      0      0     7.0     7.0      0     0.12      0.7      0.7      0.7   100    17.7     0.162    -9.9    0.000    0.000      89        0.00    0.000    0.000     244.3    181.5    0.64   120.1     260.5     139.8     131.2     103.9      88.1      63.5    0.077     0.000     0.000     0.384     0.380    0.64     0.23    0.73      0   -9.90   -9.00        7.8       16.5       22.0       22.0       22.0       22.0       22.0       22.0       22.0       22.0       22.0       22.0        0.5        0.4        0.3        0.1        0.1        0.0        0.0        0.0        0.0        0.0        0.0        0.0      0.0       6.0      23.4      28.7      34.0    363.88
     8     3  1997    30     2     242.3     0.0      0.0    0.0    0.0    0.0      0.0      0.0   -9.90      4.9      1.3     25      0.7      0.7   100      5.7     2.0      35     18.9    0.65      7      0      0      0      0     8.0     8.0      0     0.14      0.7      0.7      0.7   100    17.7     0.186    -9.9    0.000    0.000      88        0.00    0.000    0.000     242.3    179.5    0.65   120.8     265.6     142.5     131.3     104.0      88.4      64.8    0.000     0.000     0.000     0.384     0.380    0.65     0.22    0.76      0   -9.90   -9.00        6.5       15.8       22.0       22.0       22.0       22.0       22.0       22.0       22.0       22.0       22.0       22.0        0.4        0.4        0.3        0.2        0.1        0.0        0.0        0.0        0.0        0.0        0.0        0.0      0.0       5.2      23.8      28.0      32.1    363.88
     9     3  1997    31     2     241.2     0.0      0.0    0.0    0.0    0.0      0.0      0.0   -9.90      4.3      0.3      7      0.8      0.8   100      5.1     1.1      21     19.1    0.66      8      0      0      0      0     9.0     9.0      0     0.16      0.8      0.8      0.8   100    17.7     0.214    -9.9    0.000    0.000      88        0.00    0.000    0.000     241.2    178.4    0.66   122.4     270.5     145.1     133.6     105.8      89.9      66.0    0.000     0.000     0.000     0.384     0.380    0.66     0.22    0.75      0   -9.90   -9.00        6.2       15.0       22.0       22.0       22.0       22.0       22.0       22.0       22.0       22.0       22.0       22.0        0.4        0.5        0.3        0.2        0.1        0.0        0.0        0.0        0.0        0.0        0.0        0.0      0.0       5.1      24.2      28.5      32.7    363.88
    10     3  1997    32     2     240.0     0.0      0.0    0.0    0.0    0.0      0.0      0.0   -9.90      4.5      0.3      6      1.0      1.0   100      5.5     1.2      22     19.3    0.67     11      0      0      0      0    10.3    10.3      0     0.17      1.0      1.0      1.0   100    17.7     0.244    -9.9    0.000    0.000      87        0.00    0.000    0.000     240.0    177.2    0.67   123.8     275.4     147.8     137.1     108.6      92.2      67.2    0.000     0.000     0.000     0.384     0.380    0.67     0.22    0.74      0   -9.90   -9.00        5.9       14.1       22.0       22.0       22.0       22.0       22.0       22.0       22.0       22.0       22.0       22.0        0.4        0.5        0.3        0.2        0.1        0.0        0.0        0.0        0.0        0.0        0.0        0.0      0.0       5.5      24.6      28.7      32.7    363.88
    11     3  1997    33     2     238.7     0.0      0.0    0.0    0.0    0.0      0.0      0.0   -9.90      4.4      0.2      5      1.1      1.1   100      5.5     1.3      24     19.4    0.68     12      0      0      0      0    11.6    11.6      0     0.20      1.1      1.1      1.1   100    17.7     0.279    -9.9    0.000    0.000      86        0.00    0.000    0.000     238.7    175.9    0.68   125.1     280.2     150.4     139.6     110.6      93.9      68.3    0.000     0.000     0.000     0.384     0.381    0.68     0.21    0.73      0   -9.90   -9.00        5.7       13.0       22.0       22.0       22.0       22.0       22.0       22.0       22.0       22.0       22.0       22.0        0.3        0.4        0.4        0.2        0.1        0.0        0.0        0.0        0.0        0.0        0.0        0.0      0.0       5.5      24.7      28.6      32.6    363.88
    12     3  1997    34     2     237.3     0.0      0.0    0.0    0.0    0.0      0.0      0.0   -9.90      4.4      0.2      4      1.2      1.2   100      5.6     1.4      25     19.1    0.70     14      0      0      0      0    13.1    13.1      0     0.22      1.2      1.2      1.2   100    17.7     0.318    -9.9    0.000    0.000      85        0.00    0.000    0.000     237.3    174.4    0.70   126.2     285.0     152.9     142.3     112.7      95.7      69.5    0.000     0.000     0.000     0.384     0.381    0.70     0.21    0.73      0   -9.90   -9.00        5.5       11.8       22.0       22.0       22.0       22.0       22.0       22.0       22.0       22.0       22.0       22.0        0.3        0.4        0.4        0.2        0.1        0.0        0.0        0.0        0.0        0.0        0.0        0.0      0.0       5.6      24.1      28.8      33.4    363.88
    13     3  1997    35     2     235.7     0.0      0.0    0.0    0.0    0.0      0.0      0.0   -9.90      4.4      0.2      4      1.4      1.4   100      5.8     1.6      27     19.4    0.71     17      0      0      0      0    14.7    14.7      0     0.24      1.4      1.4      1.4   100    17.7     0.361    -9.9    0.000    0.000      85        0.00    0.000    0.000     235.7    172.9    0.71   127.1     289.7     155.4     145.1     115.0      97.6      70.7    0.000     0.000     0.000     0.384     0.381    0.71     0.21    0.74      0   -9.90   -9.00        5.4       10.4       22.0       22.0       22.0       22.0       22.0       22.0       22.0       22.0       22.0       22.0        0.3        0.4        0.4        0.2        0.1        0.0        0.0        0.0        0.0        0.0        0.0        0.0      0.0       5.8      24.7      29.2      33.8    363.88
    14     3  1997    36     2     238.2     0.0      8.0    0.0    8.0    0.0      0.0      0.0   -9.90      4.0      4.0    100      1.5      1.5   100      5.6     5.6     100     19.4    0.72      6      0      0      0      0    16.8    16.8      0     0.27      1.5      1.5      1.5   100    17.7     0.410    -9.9    0.000    0.000      84        0.00    0.000    0.000     238.2    175.3    0.72   132.1     294.3     157.9     146.7     116.2      98.7      71.8    0.077     0.000     0.000     0.461     0.457    0.72     0.24    0.79      0   -9.90   -9.00        9.3        9.6       21.2       22.0       22.0       22.0       22.0       22.0       22.0       22.0       22.0       22.0        0.6        0.4        0.4        0.2        0.1        0.1        0.0        0.0        0.0        0.0        0.0        0.0      0.0       5.5      24.7      29.1      33.5    363.88
    15     3  1997    37     2     236.2     0.3      0.0    0.0    0.3    0.0      0.0      0.0   -9.90      4.0      0.5     12      1.8      1.8   100      5.8     2.2      38     19.2    0.73     13      0      0      0      0    18.9    18.9      0     0.31      1.8      1.8      1.8   100    17.7     0.464    -9.9    0.000    0.000      83        0.00    0.000    0.000     236.2    173.4    0.73   132.6     298.9     160.4     149.6     118.5     100.6      72.9    0.000     0.000     0.000     0.461     0.457    0.73     0.24    0.78      0   -9.90   -9.00        9.1        9.6       19.5       22.0       22.0       22.0       22.0       22.0       22.0       22.0       22.0       22.0        0.5        0.4        0.4        0.2        0.1        0.1        0.0        0.0        0.0        0.0        0.0        0.0      0.3       5.7      24.5      28.6      32.6    363.88
    16     3  1997    38     2     234.2     0.4      0.0    0.0    0.4    0.0      0.0      0.0   -9.90      3.7      0.5     14      1.9      1.9   100      5.6     2.4      43     19.9    0.74     15      0      0      0      0    21.3    21.3      0     0.34      1.9      1.9      1.9   100    17.7     0.525    -9.9    0.000    0.000      82        0.00    0.000    0.000     234.2    171.4    0.74   133.0     303.5     162.8     151.5     120.0     101.9      74.0    0.000     0.000     0.000     0.461     0.457    0.74     0.24    0.77      0   -9.90   -9.00        9.0        9.6       17.6       22.0       22.0       22.0       22.0       22.0       22.0       22.0       22.0       22.0        0.5        0.4        0.4        0.2        0.1        0.1        0.0        0.0        0.0        0.0        0.0        0.0      0.4       5.6      25.8      29.0      32.2    363.88
    17     3  1997    39     2     232.0     0.3      0.0    0.0    0.3    0.0      0.0      0.0   -9.90      3.5      0.4     12      2.1      2.1   100      5.6     2.5      45     19.6    0.75     17      0      0      0      0    24.0    24.0      0     0.38      2.1      2.1      2.1   100    17.7     0.592    -9.9    0.000    0.000      81        0.00    0.000    0.000     232.0    169.2    0.75   133.3     308.0     165.3     153.4     121.5     103.2      75.1    0.000     0.000     0.000     0.461     0.457    0.75     0.23    0.77      0   -9.90   -9.00        8.9        9.6       15.5       22.0       22.0       22.0       22.0       22.0       22.0       22.0       22.0       22.0        0.5        0.4        0.4        0.3        0.1        0.1        0.0        0.0        0.0        0.0        0.0        0.0      0.3       5.5      25.3      28.6      31.9    363.88
    18     3  1997    40     2     229.5     0.0      0.0    0.0    0.0    0.0      0.0      0.0   -9.90      3.4      0.2      5      2.3      2.3   100      5.7     2.5      44     19.4    0.76     22      0      0      0      0    26.7    26.7      0     0.41      2.3      2.3      2.3   100    17.7     0.665    -9.9    0.000    0.000      80        0.00    0.000    0.000     229.5    166.7    0.76   133.2     312.5     167.7     156.1     123.6     105.0      76.2    0.000     0.000     0.000     0.461     0.457    0.76     0.23    0.78      0   -9.90   -9.00        8.7        9.6       13.2       22.0       22.0       22.0       22.0       22.0       22.0       22.0       22.0       22.0        0.5        0.4        0.4        0.3        0.1        0.1        0.0        0.0        0.0        0.0        0.0        0.0      0.0       5.6      24.7      28.7      32.7    363.88
    19     3  1997    41     2     226.8     0.0      0.0    0.0    0.0    0.0      0.0      0.0   -9.90      3.2      0.1      5      2.5      2.5   100      5.7     2.7      47     19.4    0.77     27      0      0      0      0    29.6    29.6      0     0.45      2.5      2.5      2.5   100    17.7     0.745    -9.9    0.000    0.000      80        0.00    0.000    0.000     226.8    164.0    0.77   132.9     316.9     170.0     158.3     125.4     106.4      77.3    0.000     0.000     0.000     0.461     0.457    0.77     0.23    0.80      0   -9.90   -9.00        8.6        9.6       10.6       22.0       22.0       22.0       22.0       22.0       22.0       22.0       22.0       22.0        0.5        0.4        0.4        0.3        0.1        0.1        0.0        0.0        0.0        0.0        0.0        0.0      0.0       5.6      24.8      28.6      32.5    363.88
    20     3  1997    42     2     223.9     0.0      0.0    0.0    0.0    0.0      0.0      0.0   -9.90      3.1      0.1      4      2.8      2.8   100      5.9     3.0      50     19.4    0.78     35      0      0      0      0    32.4    32.4      0     0.49      2.8      2.8      2.8   100    17.7     0.831    -9.9    0.000    0.000      79        0.00    0.000    0.000     223.9    161.0    0.78   132.2     321.2     172.4     161.1     127.6     108.3      78.4    0.000     0.000     0.000     0.461     0.457    0.78     0.22    0.81      0   -9.90   -9.00        8.4        9.6        9.6       20.2       22.0       22.0       22.0       22.0       22.0       22.0       22.0       22.0        0.4        0.4        0.3        0.3        0.2        0.1        0.0        0.0        0.0        0.0        0.0        0.0      0.0       5.8      24.8      28.5      32.2    363.88
    21     3  1997    43     2     229.9     3.5      8.0    0.0   11.5    0.0      0.0      0.0   -9.90      2.7      2.7    100      2.8      2.8   100      5.5     5.5     100     20.1    0.79      1      0      0      0      0    37.3    37.3      0     0.54      2.8      2.8      2.8   100    17.7     0.928    -9.9    0.000    0.000      79        0.00    0.000    0.000     229.9    167.1    0.79   140.6     325.6     174.7     160.7     127.3     108.2      79.4    0.077     0.000     0.000     0.538     0.534    0.79     0.26    0.78      0   -9.90   -9.00       14.5        9.6        9.6       20.2       22.0       22.0       22.0       22.0       22.0       22.0       22.0       22.0        0.7        0.4        0.3        0.3        0.2        0.1        0.0        0.0        0.0        0.0        0.0        0.0      3.5       5.1      26.2      28.2      30.3    363.88
    22     3  1997    44     2     226.2     0.2      0.0    0.0    0.2    0.0      0.0      0.0   -9.90      2.6      0.7     27      3.2      3.2   100      5.8     3.9      67     19.4    0.80     21      0      0      0      0    41.2    41.2      0     0.59      3.2      3.2      3.2   100    17.7     1.032    -9.9    0.000    0.000      79        0.00    0.000    0.000     226.2    163.4    0.80   139.2     329.9     177.0     163.9     129.8     110.3      80.5    0.000     0.000     0.000     0.538     0.534    0.80     0.25    0.85      0   -9.90   -9.00       10.8        9.6        9.6       20.2       22.0       22.0       22.0       22.0       22.0       22.0       22.0       22.0        0.7        0.4        0.3        0.3        0.2        0.1        0.0        0.0        0.0        0.0        0.0        0.0      0.2       5.4      24.9      28.4      31.9    363.88
    23     3  1997    45     2     222.5     0.0      0.0    0.0    0.0    0.0      0.0      0.0   -9.90      2.6      0.2      9      3.6      3.6   100      6.1     3.8      62     18.9    0.81     31      0      0      0      0    44.3    44.3      0     0.62      3.6      3.6      3.6   100    17.7     1.142    -9.9    0.000    0.000      80        0.00    0.000    0.000     222.5    159.6    0.81   137.7     334.1     179.3     167.3     132.5     112.5      81.5    0.000     0.000     0.000     0.538     0.534    0.81     0.25    0.90      0   -9.90   -9.00        9.3        9.6        9.6       18.0       22.0       22.0       22.0       22.0       22.0       22.0       22.0       22.0        0.7        0.4        0.3        0.3        0.2        0.1        0.0        0.0        0.0        0.0        0.0        0.0      0.0       5.7      23.8      28.5      33.1    363.88
    24     3  1997    46     2     218.7     0.0      0.0    0.0    0.0    0.0      0.0      0.0   -9.90      2.4      0.1      5      3.6      3.6   100      6.0     3.8      63     19.1    0.83     41      0      0      0      0    46.8    46.8      0     0.65      3.6      3.6      3.6   100    17.7     1.257    -9.9    0.000    0.000      80        0.00    0.000    0.000     218.7    155.8    0.83   136.2     338.4     181.6     169.0     133.9     113.7      82.5    0.000     0.000     0.000     0.538     0.534    0.83     0.25    0.91      0   -9.90   -9.00        9.1        9.6        9.6       14.6       21.7       22.0       22.0       22.0       22.0       22.0       22.0       22.0        0.7        0.4        0.3        0.3        0.2        0.1        0.0        0.0        0.0        0.0        0.0        0.0      0.0       5.6      24.2      28.4      32.5    363.88
    25     3  1997    47     2     215.0     0.0      0.0    0.0    0.0    0.0      0.0      0.0   -9.90      2.2      0.1      5      3.6      3.6   100      5.7     3.7      64     18.9    0.84     50      0      0      0      0    48.7    48.7      0     0.67      3.6      3.6      3.6   100    17.7     1.376    -9.9    0.000    0.000      80        0.00    0.000    0.000     215.0    152.1    0.84   134.8     342.5     183.8     170.2     134.8     114.5      83.5    0.000     0.000     0.000     0.538     0.534    0.84     0.24    0.93      0   -9.90   -9.00        9.0        9.6        9.6       11.4       21.3       22.0       22.0       22.0       22.0       22.0       22.0       22.0        0.6        0.4        0.3        0.3        0.2        0.1        0.0        0.0        0.0        0.0        0.0        0.0      0.0       5.4      23.7      27.8      31.8    363.88
    26     3  1997    48     2     211.0     0.0      0.0    0.0    0.0    0.0      0.0      0.0   -9.90      2.3      0.1      5      4.0      3.9    98      6.3     4.0      64     18.8    0.85     72      2      0      0      0    49.7    49.7      0     0.68      4.0      3.9      3.9    98    17.7     1.493    -9.9    0.000    0.000      81        0.00    0.000    0.000     211.0    148.1    0.85   133.0     346.7     186.0     174.1     137.9     117.0      84.6    0.000     0.000     0.000     0.538     0.534    0.85     0.24    0.94      0   -9.90   -9.00        8.9        9.6        9.6        9.7       19.2       22.0       22.0       22.0       22.0       22.0       22.0       22.0        0.6        0.4        0.3        0.3        0.2        0.1        0.1        0.0        0.0        0.0        0.0        0.0      0.0       5.9      23.6      27.7      31.8    363.88
    27     3  1997    49     2     207.3     0.0      0.0    0.0    0.0    0.0      0.0      0.0   -9.90      2.2      0.1      5      3.9      3.6    93      6.1     3.7      61     18.9    0.86     90      7      0      0      0    50.0    50.0      0     0.68      3.9      3.6      3.6    93    17.7     1.605    -9.9    0.000    0.000      80        0.00    0.000    0.000     207.3    144.4    0.86   131.5     350.8     188.2     175.6     139.1     118.0      85.6    0.000     0.000     0.000     0.538     0.534    0.86     0.24    0.93      0   -9.90   -9.00        8.8        9.6        9.6        9.7       16.3       21.3       22.0       22.0       22.0       22.0       22.0       22.0        0.6        0.5        0.3        0.3        0.2        0.1        0.1        0.0        0.0        0.0        0.0        0.0      0.0       5.7      23.8      28.2      32.7    363.88
    28     3  1997    50     2     209.3     0.0      8.0    0.0    8.0    0.0      0.0      0.0   -9.90      1.9      1.9    100      4.1      4.0    98      6.0     5.9      98     18.8    0.87     47      2      0      0      0    51.7    51.7      0     0.70      4.1      4.0      4.0    98    17.7     1.726    -9.9    0.000    0.000      81        0.00    0.000    0.000     209.3    146.5    0.87   135.8     354.9     190.4     178.1     141.1     119.7      86.6    0.077     0.000     0.000     0.614     0.611    0.87     0.27    0.99      0   -9.90   -9.00       10.9        9.6        9.6        9.7       16.3       21.3       22.0       22.0       22.0       22.0       22.0       22.0        0.9        0.4        0.3        0.2        0.2        0.1        0.1        0.0        0.0        0.0        0.0        0.0      0.0       5.8      23.6      28.6      33.6    363.88
    29     3  1997    51     2     203.8     0.0      0.0    0.0    0.0    0.0      0.0      0.0   -9.90      2.0      2.0    100      4.1      3.6    88      6.1     5.6      92     19.6    0.88     96     12      0      0      0    51.8    51.8      0     0.70      4.1      3.6      3.6    88    17.7     1.834    -9.9    0.000    0.000      80        0.00    0.000    0.000     203.8    141.0    0.88   132.4     359.0     192.6     180.3     142.8     121.2      87.6    0.000     0.000     0.000     0.614     0.611    0.88     0.27    1.07      0   -9.90   -9.00        8.9        9.6        9.6        9.7       13.4       20.6       22.0       22.0       22.0       22.0       22.0       22.0        0.8        0.5        0.3        0.2        0.2        0.1        0.1        0.0        0.0        0.0        0.0        0.0      0.0       5.9      25.1      29.6      34.1    363.88
    30     3  1997    52     2     198.6     0.0      0.0    0.0    0.0    0.0      0.0      0.0   -9.90      2.1      1.8     84      4.5      3.4    77      6.6     5.2      79     19.2    0.89    100     23      0      0      0    51.8    51.8      0     0.70      4.5      3.4      3.4    77    17.7     1.930    -9.9    0.000    0.000      79        0.00    0.000    0.000     198.6    135.8    0.89   129.3     363.0     194.8     184.3     146.0     123.7      88.5    0.000     0.000     0.000     0.614     0.611    0.89     0.26    1.17      0   -9.90   -9.00        7.2        9.6        9.6        9.7       10.9       19.6       22.0       22.0       22.0       22.0       22.0       22.0        0.8        0.5        0.3        0.2        0.2        0.2        0.1        0.0        0.0        0.0        0.0        0.0      0.0       6.4      24.5      29.6      34.7    363.88
    31     3  1997    53     2     195.5     0.0      0.0    0.0    0.0    0.0      0.0      0.0   -9.90      1.9      0.1      3      4.1      3.0    75      6.0     3.1      52     19.2    0.89    100     25      0      0      0    51.8    51.8      0     0.70      4.1      3.0      3.0    75    17.7     2.022    -9.9    0.000    0.000      78        0.00    0.000    0.000     195.5    132.7    0.89   128.4     366.9     196.9     184.0     145.8     123.7      89.5    0.000     0.000     0.000     0.614     0.611    0.89     0.26    1.16      0   -9.90   -9.00        7.1        9.6        9.6        9.7        9.8       17.7       22.0       22.0       22.0       22.0       22.0       22.0        0.7        0.5        0.3        0.2        0.2        0.2        0.1        0.0        0.0        0.0        0.0        0.0      0.0       5.8      24.5      29.1      33.6    363.88
     1     4  1997    54     2     192.6     0.1      0.0    0.0    0.1    0.0      0.0      0.0   -9.90      1.9      0.1      8      4.0      2.8    71      6.0     3.0      50     19.6    0.90    100     29      0      0      0    51.8    51.8      0     0.70      4.0      2.8      2.8    71    17.7     2.109    -9.9    0.000    0.000      77        0.00    0.000    0.000     192.6    129.8    0.90   127.6     370.9     199.0     185.9     147.2     124.9      90.5    0.000     0.000     0.000     0.614     0.611    0.90     0.26    1.14      0   -9.90   -9.00        7.0        9.6        9.6        9.7        9.8       15.3       21.6       22.0       22.0       22.0       22.0       22.0        0.7        0.6        0.4        0.3        0.2        0.2        0.1        0.0        0.0        0.0        0.0        0.0      0.1       5.8      25.3      29.5      33.7    363.88
     2     4  1997    55     2     189.8     0.0      0.0    0.0    0.0    0.0      0.0      0.0   -9.90      2.0      0.1      3      4.2      2.8    66      6.2     2.8      46     19.9    0.91    100     34      0      0      0    51.8    51.8      0     0.70      4.2      2.8      2.8    66    17.7     2.191    -9.9    0.000    0.000      76        0.00    0.000    0.000     189.8    126.9    0.91   126.9     374.8     201.1     188.8     149.6     126.9      91.4    0.000     0.000     0.000     0.614     0.611    0.91     0.25    1.13      0   -9.90   -9.00        7.0        9.6        9.6        9.7        9.8       12.8       21.3       22.0       22.0       22.0       22.0       22.0        0.6        0.6        0.4        0.3        0.2        0.2        0.1        0.0        0.0        0.0        0.0        0.0      0.0       6.0      25.9      30.3      34.8    363.88
     3     4  1997    56     2     187.1     0.0      0.0    0.0    0.0    0.0      0.0      0.0   -9.90      2.0      0.1      3      4.3      2.6    61      6.3     2.7      42     20.3    0.91    100     39      0      0      0    51.8    51.8      0     0.70      4.3      2.6      2.6    61    17.7     2.266    -9.9    0.000    0.000      74        0.00    0.000    0.000     187.1    124.3    0.91   124.2     374.8     201.1     189.3     150.0     127.2      91.4    0.000     0.000     0.000     0.614     0.611    0.91     0.25    1.14      0   -9.90   -9.00        6.9        9.6        9.6        9.7        9.8       10.9       20.6       22.0       22.0       22.0       22.0       22.0        0.6        0.6        0.4        0.3        0.2        0.2        0.1        0.0        0.0        0.0        0.0        0.0      0.0       6.1      26.6      30.8      35.0    363.88
     4     4  1997    57     2     190.3     0.0      8.0    0.0    8.0    0.0      0.0      0.0   -9.90      2.0      2.0    100      4.2      2.8    67      6.3     4.8      77     20.4    0.91    100     33      0      0      0    51.8    51.8      0     0.70      4.2      2.8      2.8    67    17.7     2.348    -9.9    0.000    0.000      73        0.00    0.000    0.000     190.3    127.4    0.91   127.4     374.8     201.1     189.0     149.7     135.9      91.4    0.077     0.000     0.000     0.691     0.687    0.91     0.29    1.14      0   -9.90   -9.00       10.1        9.6        9.6        9.7        9.8       10.9       20.6       22.0       22.0       22.0       22.0       22.0        0.9        0.6        0.4        0.3        0.2        0.1        0.1        0.1        0.0        0.0        0.0        0.0      0.0       6.1      26.7      30.8      34.8    363.88
     5     4  1997    58     2     185.8     0.0      0.0    0.0    0.0    0.0      0.0      0.0   -9.90      2.0      2.0    100      4.1      2.4    59      6.2     4.4      72     20.1    0.91    100     41      0      0      0    51.8    51.8      0     0.70      4.1      2.4      2.4    59    17.7     2.421    -9.9    0.000    0.000      72        0.00    0.000    0.000     185.8    123.0    0.91   122.9     374.8     201.1     188.5     149.3     126.6      91.4    0.000     0.000     0.000     0.691     0.687    0.91     0.29    1.24      0   -9.90   -9.00        8.1        9.6        9.6        9.7        9.8       10.0       19.1       22.0       22.0       22.0       22.0       22.0        0.9        0.6        0.4        0.3        0.2        0.1        0.1        0.1        0.0        0.0        0.0        0.0      0.0       5.9      26.3      30.6      35.0    363.88
     6     4  1997    59     2     181.9     0.0      0.0    0.0    0.0    0.0      0.0      0.0   -9.90      2.1      1.7     79      4.4      2.2    50      6.6     3.9      60     20.1    0.91    100     50      3      0      0    51.8    51.8      0     0.70      4.4      2.2      2.2    50    17.7     2.484    -9.9    0.000    0.000      71        0.00    0.000    0.000     181.9    119.1    0.91   119.0     374.8     201.1     190.3     150.7     127.8      91.4    0.000     0.000     0.000     0.691     0.686    0.91     0.29    1.36      0   -9.90   -9.00        6.4        9.6        9.6        9.7        9.8       10.0       17.1       21.7       22.0       22.0       22.0       22.0        0.8        0.6        0.4        0.3        0.2        0.1        0.1        0.1        0.0        0.0        0.0        0.0      0.0       6.4      26.1      31.2      36.4    363.88
     7     4  1997    60     2     179.8     0.0      0.0    0.0    0.0    0.0      0.0      0.0   -9.90      2.2      0.1      3      4.5      2.1    46      6.7     2.1      32     19.9    0.91    100     54      6      0      0    51.7    51.7      0     0.69      4.5      2.1      2.1    46    17.7     2.541    -9.9    0.000    0.000      69        0.00    0.000    0.000     179.8    116.9    0.91   116.9     374.8     201.1     190.8     151.1     136.8      91.4    0.000     0.000     0.000     0.691     0.686    0.91     0.29    1.35      0   -9.90   -9.00        6.3        9.6        9.6        9.7        9.8       10.0       15.2       21.6       22.0       22.0       22.0       22.0        0.7        0.6        0.4        0.3        0.2        0.1        0.1        0.1        0.0        0.0        0.0        0.0      0.0       6.5      25.8      31.4      36.9    363.88
     8     4  1997    61     2     177.8     0.0      0.0    0.0    0.0    0.0      0.0      0.0   -9.90      2.2      0.1      3      4.5      1.9    43      6.6     2.0      30     20.2    0.91    100     57      8      0      0    51.6    51.6      0     0.69      4.5      1.9      1.9    43    17.7     2.593    -9.9    0.000    0.000      68        0.00    0.000    0.000     177.8    115.0    0.91   114.9     374.8     201.1     190.6     151.0     136.7      91.4    0.000     0.000     0.000     0.691     0.685    0.91     0.29    1.34      0   -9.90   -9.00        6.3        9.6        9.6        9.7        9.8       10.0       13.3       21.6       22.0       22.0       22.0       22.0        0.7        0.7        0.4        0.3        0.2        0.1        0.1        0.1        0.0        0.0        0.0        0.0      0.0       6.5      26.4      31.3      36.2    363.88
     9     4  1997    62     2     176.1     0.0      0.0    0.0    0.0    0.0      0.0      0.0   -9.90      2.0      0.1      3      4.1      1.7    41      6.0     1.7      28     19.9    0.91    100     59      9      0      0    51.4    51.4      0     0.69      4.1      1.7      1.7    41    17.7     2.643    -9.9    0.000    0.000      66        0.00    0.000    0.000     176.1    113.3    0.91   113.2     374.8     201.1     188.3     149.2     135.5      91.4    0.000     0.000     0.000     0.691     0.685    0.91     0.29    1.34      0   -9.90   -9.00        6.2        9.6        9.6        9.7        9.8       10.0       11.6       21.6       22.0       22.0       22.0       22.0        0.7        0.7        0.4        0.3        0.2        0.1        0.1        0.1        0.0        0.0        0.0        0.0      0.0       5.9      25.8      29.5      33.3    363.88
    10     4  1997    63     2     174.5     0.0      0.0    0.0    0.0    0.0      0.0      0.0   -9.90      2.0      0.1      3      4.0      1.5    38      6.0     1.6      26     20.2    0.91    100     62     11      0      0    51.3    51.3      0     0.69      4.0      1.5      1.5    38    17.7     2.689    -9.9    0.000    0.000      65        0.00    0.000    0.000     174.5    111.7    0.91   111.6     374.8     201.1     188.3     149.1     135.5      91.4    0.000     0.000     0.000     0.691     0.684    0.91     0.29    1.34      0   -9.90   -9.00        6.2        9.6        9.6        9.7        9.8       10.0       10.5       21.2       22.0       22.0       22.0       22.0        0.6        0.7        0.4        0.3        0.2        0.1        0.1        0.1        0.0        0.0        0.0        0.0      0.0       5.9      26.4      30.0      33.6    363.88
    11     4  1997    64     2     178.6     0.0      8.0    0.0    8.0    0.0      0.0      0.0   -9.90      2.1      2.1    100      4.2      1.9    45      6.2     3.9      63     20.2    0.91    100     55      0      0      0    51.3    51.3      0     0.69      4.2      1.9      1.9    45    17.7     2.744    -9.9    0.000    0.000      64        0.00    0.000    0.000     178.6    115.8    0.91   115.7     374.8     201.1     189.1     149.8     135.9      91.4    0.077     0.000     0.000     0.768     0.760    0.91     0.32    1.28      0   -9.90   -9.00       10.3        9.6        9.6        9.7        9.8       10.0       10.5       21.2       22.0       22.0       22.0       22.0        0.9        0.6        0.5        0.3        0.2        0.1        0.1        0.1        0.0        0.0        0.0        0.0      0.0       6.1      26.5      29.9      33.4    363.88
    12     4  1997    65     2     175.0     0.0      0.0    0.0    0.0    0.0      0.0      0.0   -9.90      2.1      2.1    100      4.0      1.6    39      6.1     3.6      59     21.0    0.91    100     61      8      0      0    51.1    51.1      0     0.68      4.0      1.6      1.6    39    17.7     2.790    -9.9    0.000    0.000      63        0.00    0.000    0.000     175.0    112.2    0.91   112.1     374.8     201.1     188.3     149.2     135.5      91.4    0.000     0.000     0.000     0.768     0.760    0.91     0.32    1.38      0   -9.90   -9.00        8.2        9.6        9.6        9.7        9.8       10.0       10.1       20.1       22.0       22.0       22.0       22.0        0.9        0.6        0.5        0.3        0.2        0.1        0.1        0.1        0.0        0.0        0.0        0.0      0.0       5.9      28.0      30.6      33.3    363.88
    13     4  1997    66     3     173.6     0.5      0.0    0.0    0.5    0.0      0.0      0.0   -9.90      2.1      0.5     25      3.9      1.4    36      6.0     1.9      32     20.2    0.91    100     64     12      0      0    51.0    51.0      0     0.68      3.9      1.4      1.4    36    17.7     2.834    -9.9    0.000    0.000      61        0.00    0.000    0.000     173.6    110.7    0.91   110.7     374.8     201.1     187.8     148.8     135.2      91.4    0.000     0.000     0.000     0.768     0.759    0.91     0.32    1.38      0   -9.90   -9.00        8.2        9.6        9.6        9.7        9.8       10.0       10.0       18.7       22.0       22.0       22.0       22.0        0.8        0.7        0.5        0.3        0.2        0.1        0.1        0.1        0.0        0.0        0.0        0.0      0.5       5.8      26.4      30.2      34.0    363.88
    14     4  1997    67     3     172.2     0.0      0.0    0.0    0.0    0.0      0.0      0.0   -9.90      2.0      0.1      4      3.9      1.3    34      5.8     1.4      24     19.8    0.91    100     66     15      0      0    50.7    50.7      0     0.67      3.9      1.3      1.3    34    17.7     2.874    -9.9    0.000    0.000      60        0.00    0.000    0.000     172.2    109.4    0.91   109.3     374.8     201.1     187.7     148.7     135.2      91.4    0.000     0.000     0.000     0.768     0.758    0.91     0.32    1.38      0   -9.90   -9.00        8.1        9.6        9.6        9.7        9.8       10.0       10.0       17.4       22.0       22.0       22.0       22.0        0.8        0.7        0.5        0.3        0.2        0.2        0.1        0.1        0.1        0.0        0.0        0.0      0.0       5.7      25.6      29.6      33.5    363.88
    15     4  1997    68     3     170.9     0.0      0.0    0.0    0.0    0.0      0.0      0.0   -9.90      2.0      0.1      4      3.9      1.2    31      6.0     1.3      22     19.5    0.91    100     69     18      0      0    50.5    50.5      0     0.67      3.9      1.2      1.2    31    17.7     2.910    -9.9    0.000    0.000      59        0.00    0.000    0.000     170.9    108.1    0.91   108.0     374.8     201.1     188.3     149.2     135.5      91.4    0.000     0.000     0.000     0.768     0.757    0.91     0.32    1.38      0   -9.90   -9.00        8.0        9.6        9.6        9.7        9.8       10.0       10.0       16.2       22.0       22.0       22.0       22.0        0.8        0.7        0.5        0.3        0.2        0.2        0.1        0.1        0.1        0.0        0.0        0.0      0.0       5.9      25.0      29.6      34.2    363.88
    16     4  1997    69     3     169.6     0.0      0.0    0.0    0.0    0.0      0.0      0.0   -9.90      2.2      0.1      4      4.2      1.2    28      6.4     1.3      20     19.6    0.91    100     72     21      0      0    50.2    50.2      0     0.66      4.2      1.2      1.2    28    17.7     2.943     1.2    0.037    0.732      58        0.02    0.000    0.000     169.6    106.8    0.91   106.7     374.8     201.1     190.0     150.5     136.4      91.4    0.000     0.000     0.000     0.768     0.756    0.91     0.32    1.38      0   -9.90   -9.00        7.9        9.6        9.6        9.7        9.8       10.0       10.0       15.1       22.0       22.0       22.0       22.0        0.7        0.7        0.5        0.3        0.2        0.2        0.1        0.1        0.1        0.0        0.0        0.0      0.0       6.3      25.1      29.9      34.7    363.88
    17     4  1997    70     3     168.5     0.0      0.0    0.0    0.0    0.0      0.0      0.0   -9.90      2.2      0.1      4      4.1      1.1    26      6.3     1.1      18     20.0    0.91    100     74     24      0      0    49.8    49.8      0     0.65      4.1      1.1      1.1    26    17.7     2.973     1.4    0.042    0.839      57        0.02    0.000    0.000     168.5    105.7    0.91   105.6     374.8     201.1     189.8     150.3     136.3      91.4    0.000     0.000     0.000     0.768     0.755    0.91     0.31    1.38      0   -9.90   -9.00        7.9        9.6        9.6        9.7        9.8       10.0       10.0       14.0       22.0       22.0       22.0       22.0        0.7        0.7        0.5        0.3        0.2        0.2        0.1        0.1        0.1        0.0        0.0        0.0      0.0       6.3      26.0      31.1      36.1    363.88
    18     4  1997    71     3     172.0     0.0      8.0    0.0    8.0    0.0      0.0      0.0   -9.90      2.2      2.2    100      4.1      2.3    57      6.3     4.5      72     20.3    0.91     98     43      0      0      0    49.9    49.9      0     0.65      4.1      2.3      2.3    57    17.7     3.039     1.6    0.049    0.985      56        0.03    0.000    0.000     172.0    109.1    0.91   109.1     374.8     201.1     189.8     150.3     136.3      91.4    0.077     0.000     0.000     0.845     0.831    0.91     0.35    1.37      0   -9.90   -9.00       11.3        9.6        9.6        9.7        9.8       10.0       10.0       14.0       22.0       22.0       22.0       22.0        1.0        0.6        0.5        0.3        0.2        0.2        0.1        0.1        0.1        0.0        0.0        0.0      0.0       6.2      26.6      31.8      37.0    363.88
    19     4  1997    72     3     168.7     0.0      0.0    0.0    0.0    0.0      0.0      0.0   -9.90      2.2      2.2    100      4.0      1.1    26      6.2     3.3      52     20.9    0.91    100     74     19      0      0    49.7    49.7      0     0.65      4.0      1.1      1.1    26    17.7     3.070     1.8    0.057    1.133      55        0.03    0.000    0.000     168.7    105.9    0.91   105.8     374.8     201.1     189.8     150.3     127.4      91.4    0.000     0.000     0.000     0.845     0.830    0.91     0.35    1.46      0   -9.90   -9.00        9.1        9.6        9.6        9.7        9.8       10.0       10.0       12.9       22.0       22.0       22.0       22.0        1.0        0.7        0.5        0.3        0.2        0.2        0.1        0.1        0.1        0.0        0.0        0.0      0.0       6.2      27.7      31.9      36.0    363.88
    20     4  1997    73     3     167.7     0.2      0.0    0.0    0.2    0.0      0.0      0.0   -9.90      2.2      0.3     13      3.7      0.9    25      5.9     1.2      21     21.0    0.91    100     75     25      0      0    49.5    49.5      0     0.64      3.7      0.9      0.9    25    17.7     3.098     2.1    0.065    1.301      54        0.03    0.000    0.000     167.7    104.9    0.91   104.8     374.8     201.1     187.8     148.7     135.2      91.4    0.000     0.000     0.000     0.845     0.829    0.91     0.35    1.47      0   -9.90   -9.00        9.1        9.6        9.6        9.7        9.8       10.0       10.0       12.0       22.0       22.0       22.0       22.0        1.0        0.7        0.5        0.4        0.2        0.2        0.1        0.1        0.1        0.0        0.0        0.0      0.2       5.8      28.0      31.9      35.7    363.88
    21     4  1997    74     3     166.7     0.0      0.0    0.0    0.0    0.0      0.0      0.0   -9.90      2.1      0.1      5      3.8      0.9    23      5.9     1.0      17     20.8    0.91    100     77     29      0      0    49.2    49.2      0     0.64      3.8      0.9      0.9    23    17.7     3.124     2.4    0.074    1.490      53        0.04    0.000    0.000     166.7    103.9    0.91   103.8     374.8     201.1     188.4     149.2     135.5      91.4    0.000     0.000     0.000     0.845     0.828    0.91     0.35    1.47      0   -9.90   -9.00        9.0        9.6        9.6        9.7        9.8       10.0       10.0       11.1       22.0       22.0       22.0       22.0        0.9        0.7        0.5        0.4        0.2        0.2        0.1        0.1        0.1        0.0        0.0        0.0      0.0       5.9      27.5      31.5      35.5    363.88
    22     4  1997    75     3     165.8     0.0      0.0    0.0    0.0    0.0      0.0      0.0   -9.90      2.2      0.1      5      3.8      0.8    21      6.0     0.9      15     20.4    0.91    100     79     32      0      0    49.0    49.0      0     0.63      3.8      0.8      0.8    21    17.7     3.148     2.7    0.085    1.702      52        0.04    0.000    0.000     165.8    103.0    0.91   102.9     374.8     201.1     189.2     149.8     135.9      91.4    0.000     0.000     0.000     0.845     0.827    0.91     0.34    1.47      0   -9.90   -9.00        8.8        9.6        9.6        9.7        9.8       10.0       10.0       10.5       21.8       22.0       22.0       22.0        0.9        0.7        0.5        0.4        0.3        0.2        0.1        0.1        0.1        0.0        0.0        0.0      0.0       6.1      26.8      31.1      35.5    363.88
    23     4  1997    76     3     164.9     0.0      0.0    0.0    0.0    0.0      0.0      0.0   -9.90      2.3      0.1      5      3.9      0.8    19      6.1     0.9      14     20.1    0.91    100     81     35      0      0    48.7    48.7      0     0.62      3.9      0.8      0.8    19    17.7     3.169     3.1    0.097    1.941      51        0.05    0.000    0.000     164.9    102.1    0.91   102.0     374.8     201.1     189.7     150.2     136.2      91.4    0.000     0.000     0.000     0.845     0.826    0.91     0.34    1.48      0   -9.90   -9.00        8.7        9.6        9.6        9.7        9.8       10.0       10.0       10.2       21.4       22.0       22.0       22.0        0.8        0.7        0.5        0.4        0.3        0.2        0.1        0.1        0.1        0.0        0.0        0.0      0.0       6.2      26.2      30.4      34.6    363.88
    24     4  1997    77     3     164.2     0.0      0.0    0.0    0.0    0.0      0.0      0.0   -9.90      2.2      0.1      5      3.7      0.7    18      6.0     0.8      13     19.9    0.91    100     82     38      0      0    48.3    48.3      0     0.62      3.7      0.7      0.7    18    17.7     3.189     3.5    0.110    2.208      50        0.06    0.000    0.000     164.2    101.3    0.91   101.3     374.8     201.1     189.1     149.8     135.9      91.4    0.000     0.000     0.000     0.845     0.824    0.91     0.34    1.48      0   -9.90   -9.00        8.6        9.6        9.6        9.7        9.8       10.0       10.0       10.1       20.8       22.0       22.0       22.0        0.8        0.7        0.5        0.4        0.3        0.2        0.1        0.1        0.1        0.0        0.0        0.0      0.0       6.1      25.8      30.6      35.5    363.88
    25     4  1997    78     3     167.3     0.0      8.0    0.0    8.0    0.0      0.0      0.0   -9.90      2.1      2.1    100      3.9      2.8    71      6.0     4.9      81     20.5    0.91     56     29      0      0      0    49.9    49.9      0     0.65      3.9      2.8      2.8    71    17.7     3.271     3.9    0.129    2.583      50        0.06    0.000    0.000     167.3    104.4    0.91   104.4     374.8     201.1     188.8     149.6     135.8      91.4    0.077     0.000     0.000     0.922     0.900    0.91     0.38    1.47      0   -9.90   -9.00       11.7        9.6        9.6        9.7        9.8       10.0       10.0       10.1       20.8       22.0       22.0       22.0        1.1        0.7        0.5        0.4        0.3        0.2        0.1        0.1        0.1        0.0        0.0        0.0      0.0       6.0      27.0      30.9      34.7    363.88
    26     4  1997    79     3     164.4     0.0      0.0    0.0    0.0    0.0      0.0      0.0   -9.90      2.1      2.1    100      3.9      0.7    19      6.1     2.9      47     20.2    0.91    100     81     23      0      0    49.7    49.7      0     0.65      3.9      0.7      0.7    19    17.7     3.293     4.5    0.147    2.938      49        0.07    0.000    0.000     164.4    101.6    0.91   101.5     374.8     201.1     189.2     149.9     127.1      91.4    0.000     0.000     0.000     0.922     0.899    0.91     0.37    1.57      0   -9.90   -9.00        9.6        9.6        9.6        9.7        9.8       10.0       10.0       10.0       20.1       22.0       22.0       22.0        1.1        0.7        0.5        0.4        0.3        0.2        0.1        0.1        0.1        0.0        0.0        0.0      0.0       6.1      26.5      30.6      34.6    363.88
    27     4  1997    80     3     162.3     0.0      0.0    0.0    0.0    0.0      0.0      0.0   -9.90      2.2      1.5     69      3.9      0.6    15      6.1     2.1      34     19.9    0.91    100     85     40      0      0    49.5    49.5      0     0.64      3.9      0.6      0.6    15    17.7     3.309     5.0    0.166    3.323      48        0.08    0.000    0.000     162.3     99.5    0.91    99.4     374.8     201.1     189.2     149.8     135.9      91.4    0.000     0.000     0.000     0.922     0.898    0.91     0.37    1.66      0   -9.90   -9.00        8.1        9.6        9.6        9.7        9.8       10.0       10.0       10.0       19.6       22.0       22.0       22.0        1.0        0.7        0.5        0.4        0.3        0.2        0.1        0.1        0.1        0.1        0.0        0.0      0.0       6.1      25.9      30.2      34.6    363.88
    28     4  1997    81     3     161.7     0.0      0.0    0.0    0.0    0.0      0.0      0.0   -9.90      2.2      0.1      4      3.9      0.5    14      6.1     0.6      10     20.2    0.91    100     86     49      0      0    49.2    49.2      0     0.63      3.9      0.5      0.5    14    17.7     3.325     5.6    0.188    3.751      48        0.09    0.000    0.000     161.7     98.9    0.91    98.8     374.8     201.1     189.4     150.0     136.1      91.4    0.000     0.000     0.000     0.922     0.896    0.91     0.37    1.65      0   -9.90   -9.00        8.0        9.6        9.6        9.7        9.8       10.0       10.0       10.0       19.1       22.0       22.0       22.0        1.0        0.8        0.5        0.4        0.3        0.2        0.1        0.1        0.1        0.1        0.0        0.0      0.0       6.2      26.4      31.0      35.6    363.88
    29     4  1997    82     3     161.1     0.0      0.0    0.0    0.0    0.0      0.0      0.0   -9.90      2.2      0.1      4      3.8      0.5    13      5.9     0.6       9     20.8    0.91    100     87     51      0      0    48.9    48.9      0     0.63      3.8      0.5      0.5    13    17.7     3.339     6.3    0.211    4.223      47        0.10    0.000    0.000     161.1     98.3    0.91    98.2     374.8     201.1     188.7     149.5     135.7      91.4    0.000     0.000     0.000     0.922     0.895    0.91     0.37    1.65      0   -9.90   -9.00        7.9        9.6        9.6        9.7        9.8       10.0       10.0       10.0       18.6       22.0       22.0       22.0        0.9        0.8        0.5        0.4        0.3        0.2        0.1        0.1        0.1        0.1        0.0        0.0      0.0       6.0      27.6      31.6      35.5    363.88
    30     4  1997    83     3     160.6     0.0      0.0    0.0    0.0    0.0      0.0      0.0   -9.90      2.2      0.1      4      3.8      0.4    12      6.1     0.5       9     20.9    0.91    100     88     55      0      0    48.6    48.6      0     0.62      3.8      0.4      0.4    12    17.7     3.351     7.1    0.237    4.743      46        0.11    0.000    0.000     160.6     97.8    0.91    97.7     374.8     201.1     189.6     150.2     136.2      91.4    0.000     0.000     0.000     0.922     0.894    0.91     0.37    1.65      0   -9.90   -9.00        7.8        9.6        9.6        9.7        9.8       10.0       10.0       10.0       18.1       22.0       22.0       22.0        0.9        0.8        0.6        0.4        0.3        0.2        0.1        0.1        0.1        0.1        0.0        0.0      0.0       6.2      27.9      31.8      35.6    363.88
     1     5  1997    84     3     160.1     0.0      0.0    0.0    0.0    0.0      0.0      0.0   -9.90      2.5      0.1      4      4.1      0.4    10      6.6     0.5       8     21.0    0.91    100     90     59      0      0    48.3    48.3      0     0.61      4.1      0.4      0.4    10    17.7     3.363     7.9    0.265    5.310      45        0.13    0.000    0.000     160.1     97.3    0.91    97.2     374.8     201.1     191.9     152.0     137.4      91.4    0.000     0.000     0.000     0.922     0.893    0.91     0.37    1.65      0   -9.90   -9.00        7.8        9.6        9.6        9.7        9.8       10.0       10.0       10.0       17.7       22.0       22.0       22.0        0.9        0.8        0.6        0.4        0.3        0.2        0.1        0.1        0.1        0.1        0.0        0.0      0.0       6.8      28.7      33.2      37.8    363.88
     2     5  1997    85     3     163.5     0.0      8.0    0.0    8.0    0.0      0.0      0.0   -9.90      2.6      2.6    100      4.3      2.0    47      6.9     4.6      67     21.0    0.91    100     53      0      0      0    48.3    48.3      0     0.61      4.3      2.0      2.0    47    17.7     3.413     8.8    0.302    6.034      45        0.14    0.000    0.000     163.5    100.6    0.91   100.6     374.8     201.1     193.4     153.1     138.2      91.4    0.077     0.000     0.000     0.998     0.968    0.91     0.40    1.62      0   -9.90   -9.00       11.1        9.6        9.6        9.7        9.8       10.0       10.0       10.0       17.7       22.0       22.0       22.0        1.2        0.8        0.6        0.4        0.3        0.2        0.1        0.1        0.1        0.1        0.0        0.0      0.0       7.1      29.8      34.0      38.2    363.88
     3     5  1997    86     3     160.4     0.0      0.0    0.0    0.0    0.0      0.0      0.0   -9.90      2.6      2.6    100      4.1      0.4    11      6.7     3.0      45     20.9    0.91    100     89     41      0      0    48.1    48.1      0     0.61      4.1      0.4      0.4    11    17.7     3.425     9.8    0.335    6.700      44        0.16    0.000    0.000     160.4     97.6    0.91    97.5     374.8     201.1     192.0     152.1     128.8      91.4    0.000     0.000     0.000     0.998     0.967    0.91     0.40    1.76      0   -9.90   -9.00        8.5        9.6        9.6        9.7        9.8       10.0       10.0       10.0       17.3       22.0       22.0       22.0        1.1        0.8        0.6        0.4        0.3        0.2        0.1        0.1        0.1        0.1        0.0        0.0      0.0       6.8      27.9      33.1      38.4    363.88
     4     5  1997    87     3     159.3     0.0      0.0    0.0    0.0    0.0      0.0      0.0   -9.90      2.6      0.7     28      4.0      0.4     9      6.6     1.1      17     21.0    0.91    100     91     59      0      0    47.8    47.8      0     0.60      4.0      0.4      0.4     9    17.7     3.434    10.7    0.367    7.350      43        0.17    0.000    0.000     159.3     96.5    0.91    96.4     374.8     201.1     191.2     151.4     137.0      91.4    0.000     0.000     0.000     0.998     0.966    0.91     0.40    1.80      0   -9.90   -9.00        7.8        9.6        9.6        9.7        9.8       10.0       10.0       10.0       16.9       22.0       22.0       22.0        1.1        0.8        0.6        0.4        0.3        0.2        0.1        0.1        0.1        0.1        0.0        0.0      0.0       6.6      29.2      33.2      37.3    363.88
[...]
     6     7  1997   150     4     207.9     2.2      0.0    0.0    2.2    0.0      0.0      0.0   -9.90      0.5      0.5    100      2.6      2.6   100      3.1     3.1     100     20.1    0.91     -9      0      0      0      0    75.0    75.0      0     0.82      2.6      2.6      2.6   100    17.7    11.793    54.7    6.455  129.104      68        1.27    0.000    0.000     207.9    145.1    0.91   145.0     374.8     201.1     177.2     140.4     119.8      91.4    0.000     0.000     0.000     1.421     1.107    0.91     0.46    1.47      0   -9.90   -9.00        8.6        9.5        9.6        9.6       16.7       22.0       22.0       22.0       22.0       22.0       22.0       22.0        0.8        0.5        0.4        0.3        0.4        0.5        0.4        0.4        0.4        0.4        0.4        0.4      2.2       3.2      26.1      29.2      32.2    363.88
     7     7  1997   151     4     204.3     1.2      0.0    0.0    1.2    0.0      0.0      0.0   -9.90      0.8      0.8    100      4.0      4.0    99      4.8     4.8      99     20.3    0.91     -9      1      0      0      0    75.0    75.0      0     0.82      4.0      4.0      4.0    99    17.7    11.937    54.7    6.534  130.675      68        1.27    0.000    0.000     204.3    141.5    0.91   141.4     374.8     201.1     184.4     146.0     124.1      91.4    0.000     0.000     0.000     1.421     1.107    0.91     0.46    1.47      0   -9.90   -9.00        9.0        9.5        9.6        9.6       13.6       21.0       22.0       22.0       22.0       22.0       22.0       22.0        0.8        0.5        0.4        0.3        0.4        0.5        0.4        0.4        0.4        0.4        0.4        0.4      1.2       4.9      26.6      31.4      36.1    363.88
     8     7  1997   152     4     212.5    11.6      0.0    0.0   11.6    0.0      0.0      0.0   -9.90      0.6      0.6    100      2.9      2.9   100      3.5     3.5     100     20.2    0.91     -9      0      0      0      0    75.0    75.0      0     0.82      2.9      2.9      2.9   100    17.7    12.082    54.7    6.613  132.262      68        1.28    0.000    0.000     212.5    149.6    0.91   149.6     374.8     201.1     178.7     141.5     120.7      91.4    0.000     0.000     0.000     1.421     1.107    0.91     0.46    1.28      0   -9.90   -9.00       17.1        9.5        9.6        9.6       13.6       21.0       22.0       22.0       22.0       22.0       22.0       22.0        0.8        0.5        0.4        0.3        0.4        0.5        0.4        0.4        0.4        0.4        0.4        0.4     11.6       3.5      26.4      29.5      32.6    363.88
     9     7  1997   153     4     213.6     5.2      0.0    0.0    5.2    0.0      0.0      0.0   -9.90      0.7      0.7    100      3.4      3.4   100      4.0     4.0     100     19.9    0.91     -9      0      0      0      0    75.0    75.0      0     0.82      3.4      3.4      3.4   100    17.7    12.227    54.7    6.692  133.847      69        1.29    0.000    0.000     213.6    150.8    0.91   150.7     374.8     201.1     181.1     143.4     122.1      91.4    0.000     0.000     0.000     1.421     1.107    0.91     0.46    1.26      0   -9.90   -9.00       18.3        9.5        9.6        9.6       13.6       21.0       22.0       22.0       22.0       22.0       22.0       22.0        0.8        0.4        0.4        0.3        0.4        0.5        0.4        0.4        0.4        0.4        0.4        0.4      5.2       4.1      25.7      29.8      33.8    363.88
    10     7  1997   154     4     208.6     0.2      0.0    0.0    0.2    0.0      0.0      0.0   -9.90      0.9      0.6     61      4.7      4.7   100      5.6     5.2      94     20.4    0.91     -9      0      0      0      0    75.0    75.0      0     0.82      4.7      4.7      4.7   100    17.7    12.371    54.7    6.772  135.431      69        1.29    0.000    0.000     208.6    145.8    0.91   145.7     374.8     201.1     187.6     148.6     126.1      91.4    0.000     0.000     0.000     1.421     1.107    0.91     0.46    1.33      0   -9.90   -9.00       13.3        9.5        9.6        9.6       13.6       21.0       22.0       22.0       22.0       22.0       22.0       22.0        0.8        0.4        0.4        0.3        0.4        0.5        0.4        0.4        0.4        0.4        0.4        0.4      0.2       5.7      26.9      31.2      35.5    363.88
    11     7  1997   155     4     213.6     1.0      8.0    0.0    9.0    0.0      0.0      0.0   -9.90      0.6      0.6    100      3.4      3.4   100      4.0     4.0     100     20.1    0.91     -9      0      0      0      0    75.0    75.0      0     0.81      3.4      3.4      3.4   100    17.7    12.516    54.7    6.851  137.012      69        1.29    0.000    0.000     213.6    150.8    0.91   150.7     374.8     201.1     181.1     143.5     122.2      91.4    0.077     0.000     0.000     1.498     1.184    0.91     0.49    1.33      0   -9.90   -9.00       18.3        9.5        9.6        9.6       13.6       21.0       22.0       22.0       22.0       22.0       22.0       22.0        1.1        0.4        0.4        0.3        0.4        0.5        0.4        0.4        0.4        0.4        0.4        0.4      1.0       4.2      26.1      29.7      33.3    363.88
    12     7  1997   156     4     210.8     2.6      0.0    0.0    2.6    0.0      0.0      0.0   -9.90      0.9      0.9    100      4.5      4.5   100      5.4     5.4     100     20.6    0.91     -9      0      0      0      0    75.0    75.0      0     0.81      4.5      4.5      4.5   100    17.7    12.660    54.7    6.930  138.592      69        1.30    0.000    0.000     210.8    148.0    0.91   147.9     374.8     201.1     186.8     148.0     125.6      91.4    0.000     0.000     0.000     1.498     1.184    0.91     0.49    1.37      0   -9.90   -9.00       15.5        9.5        9.6        9.6       13.6       21.0       22.0       22.0       22.0       22.0       22.0       22.0        1.1        0.4        0.4        0.3        0.4        0.5        0.5        0.4        0.4        0.4        0.4        0.4      2.6       5.5      27.2      31.4      35.6    363.88
    13     7  1997   157     4     216.5     8.0      0.0    0.0    8.0    0.0      0.0      0.0   -9.90      0.4      0.4    100      2.0      2.0   100      2.4     2.4     100     19.8    0.91     -9      0      0      0      0    75.0    75.0      0     0.81      2.0      2.0      2.0   100    17.7    12.804    54.7    7.008  140.169      70        1.31    0.000    0.000     216.5    153.6    0.91   153.6     374.8     201.1     174.1     137.9     117.9      91.4    0.000     0.000     0.000     1.498     1.184    0.91     0.49    1.29      0   -9.90   -9.00       21.1        9.5        9.6        9.6       13.6       21.0       22.0       22.0       22.0       22.0       22.0       22.0        1.1        0.4        0.4        0.3        0.4        0.5        0.5        0.4        0.4        0.4        0.4        0.4      8.0       2.4      25.6      27.6      29.6    363.88
    14     7  1997   158     4     223.3     8.9      0.0    0.0    8.9    0.0      0.0      0.0   -9.90      0.3      0.3    100      1.7      1.7   100      2.0     2.0     100     19.6    0.91     -9      0      0      0      0    75.0    75.0      0     0.81      1.7      1.7      1.7   100    17.7    12.948    54.7    7.087  141.745      70        1.31    0.000    0.000     223.3    160.5    0.91   160.4     374.8     201.1     172.7     136.8     117.1      91.4    0.000     0.000     0.000     1.498     1.184    0.91     0.49    1.22      0   -9.90   -9.00       28.0        9.5        9.6        9.6       13.6       21.0       22.0       22.0       22.0       22.0       22.0       22.0        1.1        0.4        0.4        0.3        0.4        0.5        0.5        0.4        0.4        0.4        0.4        0.4      8.9       2.1      25.3      26.9      28.5    363.88
    15     7  1997   159     4     229.1     8.2      0.0    0.0    8.2    0.0      0.0      0.0   -9.90      0.4      0.4    100      2.1      2.1   100      2.5     2.5     100     19.6    0.91     -9      0      0      0      0    75.0    75.0      0     0.81      2.1      2.1      2.1   100    17.7    13.092    54.7    7.166  143.319      70        1.32    0.000    0.000     229.1    166.2    0.91   166.2     374.8     201.1     174.5     138.2     118.2      91.4    0.000     0.000     0.000     1.498     1.184    0.91     0.49    1.17      0   -9.90   -9.00       28.1       15.1        9.6        9.6       13.6       21.0       22.0       22.0       22.0       22.0       22.0       22.0        1.0        0.6        0.4        0.3        0.4        0.5        0.5        0.4        0.4        0.4        0.4        0.4      8.2       2.5      25.1      27.6      30.1    363.88
    16     7  1997   160     4     228.6     2.8      0.0    0.0    2.8    0.0      0.0      0.0   -9.90      0.5      0.5    100      2.7      2.7   100      3.3     3.3     100     19.8    0.91     -9      0      0      0      0    75.0    75.0      0     0.81      2.7      2.7      2.7   100    17.7    13.236    54.7    7.245  144.891      70        1.33    0.000    0.000     228.6    165.8    0.91   165.7     374.8     201.1     177.9     141.0     120.3      91.4    0.000     0.000     0.000     1.498     1.184    0.91     0.49    1.16      0   -9.90   -9.00       21.8       21.0        9.6        9.6       13.6       21.0       22.0       22.0       22.0       22.0       22.0       22.0        0.8        0.8        0.4        0.3        0.4        0.5        0.5        0.4        0.4        0.4        0.4        0.4      2.8       3.4      25.5      28.4      31.2    363.88
    17     7  1997   161     4     225.4     0.1      0.0    0.0    0.1    0.0      0.0      0.0   -9.90      0.6      0.5     96      2.8      2.8   100      3.4     3.3      99     19.9    0.91     -9      0      0      0      0    75.0    75.0      0     0.81      2.8      2.8      2.8   100    17.7    13.379    54.7    7.323  146.461      70        1.34    0.000    0.000     225.4    162.5    0.91   162.5     374.8     201.1     178.4     141.3     120.5      91.4    0.000     0.000     0.000     1.498     1.183    0.91     0.49    1.19      0   -9.90   -9.00       18.5       21.0        9.6        9.6       13.6       21.0       22.0       22.0       22.0       22.0       22.0       22.0        0.8        0.8        0.4        0.3        0.4        0.5        0.5        0.4        0.4        0.4        0.4        0.4      0.1       3.5      25.8      28.6      31.4    363.88
    18     7  1997   162     4     230.6     1.1      8.0    0.0    9.1    0.0      0.0      0.0   -9.90      0.6      0.6    100      3.3      3.3   100      3.9     3.9     100     20.5    0.91     -9      0      0      0      0    75.0    75.0      0     0.81      3.3      3.3      3.3   100    17.7    13.522    54.7    7.401  148.030      71        1.34    0.000    0.000     230.6    167.7    0.91   167.7     374.8     201.1     180.7     143.1     121.9      91.4    0.077     0.000     0.000     1.574     1.260    0.91     0.53    1.20      0   -9.90   -9.00       23.7       21.0        9.6        9.6       13.6       21.0       22.0       22.0       22.0       22.0       22.0       22.0        1.1        0.8        0.4        0.3        0.4        0.5        0.5        0.4        0.4        0.4        0.4        0.4      1.1       4.0      27.0      29.4      31.9    363.88
    19     7  1997   163     4     227.9     0.5      0.0    0.0    0.5    0.0      0.0      0.0   -9.90      0.5      0.5    100      2.6      2.6   100      3.1     3.1     100     20.1    0.91     -9      0      0      0      0    75.0    75.0      0     0.81      2.6      2.6      2.6   100    17.7    13.665    54.7    7.480  149.596      71        1.35    0.000    0.000     227.9    165.1    0.91   165.0     374.8     201.1     177.3     140.5     119.9      91.4    0.000     0.000     0.000     1.574     1.260    0.91     0.53    1.23      0   -9.90   -9.00       19.4       22.1       10.2        9.6       13.6       21.0       22.0       22.0       22.0       22.0       22.0       22.0        0.9        0.9        0.4        0.3        0.4        0.5        0.5        0.4        0.4        0.4        0.4        0.4      0.5       3.2      26.1      28.1      30.0    363.88
    20     7  1997   164     4     224.1     0.1      0.0    0.0    0.1    0.0      0.0      0.0   -9.90      0.7      0.6     94      3.3      3.3   100      4.0     3.9      99     19.9    0.91     -9      0      0      0      0    75.0    75.0      0     0.81      3.3      3.3      3.3   100    17.7    13.808    54.7    7.558  151.161      71        1.35    0.000    0.000     224.1    161.3    0.91   161.2     374.8     201.1     181.1     143.4     122.1      91.4    0.000     0.000     0.000     1.574     1.260    0.91     0.53    1.28      0   -9.90   -9.00       15.6       22.0       10.3        9.6       13.6       21.0       22.0       22.0       22.0       22.0       22.0       22.0        0.9        0.9        0.4        0.3        0.4        0.5        0.5        0.4        0.4        0.4        0.4        0.4      0.1       4.1      25.8      29.4      33.0    363.88
    21     7  1997   165     4     221.7     2.6      0.0    0.0    2.6    0.0      0.0      0.0   -9.90      0.8      0.8    100      4.2      4.2   100      5.0     5.0     100     20.4    0.91     -9      0      0      0      0    75.0    75.0      0     0.80      4.2      4.2      4.2   100    17.7    13.951    54.7    7.636  152.724      71        1.35    0.000    0.000     221.7    158.9    0.91   158.8     374.8     201.1     185.4     146.9     124.8      91.4    0.000     0.000     0.000     1.574     1.260    0.91     0.53    1.33      0   -9.90   -9.00       13.2       22.0       10.3        9.6       13.6       21.0       22.0       22.0       22.0       22.0       22.0       22.0        0.9        0.9        0.4        0.3        0.4        0.5        0.5        0.4        0.4        0.4        0.4        0.4      2.6       5.2      26.9      31.2      35.5    363.88
    22     7  1997   166     4     216.6     0.0      0.0    0.0    0.0    0.0      0.0      0.0   -9.90      0.9      0.9    100      4.3      4.3   100      5.1     5.1     100     20.6    0.91     -9      0     -9      0      0    74.7    74.7      0     0.80      4.3      4.3      4.3   100    17.7    14.093    54.7    7.714  154.274      72        1.36    0.000    0.000     216.6    153.7    0.91   153.6     374.8     201.1     186.0     147.4     125.2      91.4    0.000     0.000     0.000     1.574     1.259    0.91     0.53    1.47      0   -9.90   -9.00        8.6       21.4       10.3        9.6       13.6       21.0       22.0       22.0       22.0       22.0       22.0       22.0        0.8        0.9        0.4        0.3        0.4        0.5        0.5        0.5        0.4        0.4        0.4        0.4      0.0       5.3      27.3      31.2      35.2    363.88
    23     7  1997   167     4     210.7     0.1      0.0    0.0    0.1    0.0      0.0      0.0   -9.90      1.2      0.3     28      5.6      5.6   100      6.8     6.0      88     20.4    0.91     -9      0     -9      0      0    74.4    74.4      0     0.79      5.6      5.6      5.6   100    17.7    14.233    54.7    7.791  155.811      72        1.35    0.000    0.000     210.7    147.9    0.91   147.8     374.8     201.1     193.4     153.1     129.6      91.4    0.000     0.000     0.000     1.574     1.259    0.91     0.52    1.53      0   -9.90   -9.00        8.4       16.8        9.8        9.6       13.1       21.0       22.0       22.0       22.0       22.0       22.0       22.0        0.8        1.0        0.4        0.3        0.4        0.5        0.5        0.5        0.4        0.4        0.4        0.4      0.1       7.1      26.9      31.8      36.6    363.88
    24     7  1997   168     4     205.4     0.0      0.0    0.0    0.0    0.0      0.0      0.0   -9.90      1.2      0.1     12      5.7      5.1    91      6.9     5.3      77     21.0    0.91     -9      9     -9      0      0    74.0    74.0      0     0.78      5.7      5.1      5.1    91    17.7    14.359    54.7    7.860  157.192      72        1.35    0.000    0.000     205.4    142.6    0.91   142.5     374.8     201.1     193.8     153.5     129.8      91.4    0.000     0.000     0.000     1.574     1.259    0.91     0.52    1.64      0   -9.90   -9.00        8.3       12.2        9.8        9.6       12.6       21.0       22.0       22.0       22.0       22.0       22.0       22.0        0.7        1.0        0.4        0.3        0.4        0.5        0.5        0.5        0.4        0.4        0.4        0.4      0.0       7.2      28.0      32.4      36.7    363.88
    25     7  1997   169     4     207.9     1.1      8.0    0.0    9.1    0.0      0.0      0.0   -9.90      1.2      1.2    100      5.6      5.3    95      6.8     6.6      96     20.9    0.91     -9      5     -9      0      0    73.6    73.6      0     0.78      5.6      5.3      5.3    95    17.7    14.490    54.7    7.931  158.624      72        1.35    0.000    0.000     207.9    145.1    0.91   145.0     374.8     201.1     193.9     153.5     129.9      91.4    0.077     0.000     0.000     1.651     1.335    0.91     0.56    1.67      0   -9.90   -9.00       11.1       11.9        9.8        9.6       12.6       21.0       22.0       22.0       22.0       22.0       22.0       22.0        1.1        0.9        0.5        0.3        0.4        0.5        0.5        0.5        0.4        0.4        0.4        0.4      1.1       7.2      27.7      32.7      37.7    363.88
    26     7  1997   170     4     206.6     4.6      0.0    0.0    4.6    0.0      0.0      0.0   -9.90      1.1      1.1    100      5.0      4.8    95      6.1     5.9      96     20.8    0.91     -9      5     -9      0      0    73.2    73.2      0     0.77      5.0      4.8      4.8    95    17.7    14.620    54.7    8.002  160.048      72        1.35    0.000    0.000     206.6    143.8    0.91   143.7     374.8     201.1     191.0     151.3     128.2      91.4    0.000     0.000     0.000     1.651     1.335    0.91     0.56    1.73      0   -9.90   -9.00        9.8       11.8        9.8        9.6       12.6       21.0       22.0       22.0       22.0       22.0       22.0       22.0        1.1        0.9        0.5        0.3        0.4        0.5        0.5        0.5        0.4        0.4        0.4        0.4      4.6       6.5      27.5      31.9      36.4    363.88
    27     7  1997    -9     0     206.3     0.3      0.0    0.0    0.3    0.0      0.0      0.0   -9.90      4.3      0.7     15      0.0      0.0   100      4.3     0.7      15     21.0    0.91     -9     -9     -9      0     -9     0.0     0.0      0    -9.00      0.0      0.0      0.0   100    17.7    14.620    54.7    8.002  160.048      72        1.35    0.000    0.000     206.3    143.4    0.91   143.4     374.8     201.1     191.0     153.1     128.2      91.4    0.000     0.000     0.000     1.651     1.335    0.91     0.56    1.74      0   -9.90   -9.00        9.5       11.8        9.8        9.6       12.6       21.0       22.0       22.0       22.0       22.0       22.0       22.0        1.0        0.9        0.5        0.3        0.4        0.5        0.5        0.5        0.4        0.4        0.4        0.4      0.3       7.1      28.4      31.6      34.7    363.88
