AquaCrop 7.2 (August 2024) - Output created on (date) : 08-12-2024   at (time) : 14:51:36

   Day Month  Year   DAP Stage    Irri  IrrInt
                                    mm    days
    22     1  1993     1    -9     0.0    43
    23     1  1993     2    -9     0.0    43
    24     1  1993     3    -9     0.0    43
    25     1  1993     4    -9     0.0    43
    26     1  1993     5    -9     0.0    43
    27     1  1993     6    -9     0.0    43
    28     1  1993     7    -9     0.0    43
    29     1  1993     8    -9     0.0    43
    30     1  1993     9    -9     0.0    43
    31     1  1993    10    -9     0.0    43
     1     2  1993    11    -9     0.0    43
     2     2  1993    12    -9     0.0    43
     3     2  1993    13    -9     0.0    43
     4     2  1993    14    -9     0.0    43
     5     2  1993    15    -9     0.0    43
     6     2  1993    16    -9     0.0    43
     7     2  1993    17    -9     0.0    43
     8     2  1993    18    -9     0.0    43
     9     2  1993    19    -9     0.0    43
    10     2  1993    20    -9     0.0    43
    11     2  1993    21    -9     0.0    43
    12     2  1993    22    -9     0.0    43
    13     2  1993    23    -9     0.0    43
    14     2  1993    24    -9     0.0    43
    15     2  1993    25    -9     0.0    43
    16     2  1993    26    -9     0.0    43
    17     2  1993    27    -9     0.0    43
    18     2  1993    28    -9     0.0    43
    19     2  1993    29    -9     0.0    43
    20     2  1993    30    -9     0.0    43
    21     2  1993    31    -9     0.0    43
    22     2  1993    32    -9     0.0    43
    23     2  1993    33    -9     0.0    43
    24     2  1993    34    -9     0.0    43
    25     2  1993    35    -9     0.0    43
    26     2  1993    36    -9     0.0    43
    27     2  1993    37    -9     0.0    43
    28     2  1993    38    -9     0.0    43
     1     3  1993    39    -9     0.0    43
     2     3  1993    40    -9     0.0    43
     3     3  1993    41    -9     0.0    43
     4     3  1993    42    -9     0.0    43
     5     3  1993    43    -9    62.1    43
     6     3  1993    44    -9     0.0    16
     7     3  1993    45    -9     0.0    16
     8     3  1993    46    -9     0.0    16
     9     3  1993    47    -9     0.0    16
    10     3  1993    48    -9     0.0    16
    11     3  1993    49    -9     0.0    16
    12     3  1993    50    -9     0.0    16
    13     3  1993    51    -9     0.0    16
    14     3  1993    52    -9     0.0    16
    15     3  1993    53    -9     0.0    16
    16     3  1993    54    -9     0.0    16
    17     3  1993    55    -9     0.0    16
    18     3  1993    56    -9     0.0    16
    19     3  1993    57    -9     0.0    16
    20     3  1993    58    -9     0.0    16
    21     3  1993    59    -9    63.0    16
    22     3  1993    60    -9     0.0    11
    23     3  1993    61    -9     0.0    11
    24     3  1993    62    -9     0.0    11
    25     3  1993    63    -9     0.0    11
    26     3  1993    64    -9     0.0    11
    27     3  1993    65    -9     0.0    11
    28     3  1993    66    -9     0.0    11
    29     3  1993    67    -9     0.0    11
    30     3  1993    68    -9     0.0    11
    31     3  1993    69    -9     0.0    11
     1     4  1993    70    -9    60.9    11
     2     4  1993    71    -9     0.0    12
     3     4  1993    72    -9     0.0    12
     4     4  1993    73    -9     0.0    12
     5     4  1993    74    -9     0.0    12
     6     4  1993    75    -9     0.0    12
     7     4  1993    76    -9     0.0    12
     8     4  1993    77    -9     0.0    12
     9     4  1993    78    -9     0.0    12
    10     4  1993    79    -9     0.0    12
    11     4  1993    80    -9     0.0    12
    12     4  1993    81    -9     0.0    12
    13     4  1993    82    -9    65.9    12
    14     4  1993    83    -9     0.0    11
    15     4  1993    84    -9     0.0    11
    16     4  1993    85    -9     0.0    11
    17     4  1993    86    -9     0.0    11
    18     4  1993    87    -9     0.0    11
    19     4  1993    88    -9     0.0    11
    20     4  1993    89    -9     0.0    11
    21     4  1993    90    -9     0.0    11
    22     4  1993    91    -9     0.0    11
    23     4  1993    92    -9     0.0    11
    24     4  1993    93    -9    63.7    11
    25     4  1993    94    -9     0.0    10
    26     4  1993    95    -9     0.0    10
    27     4  1993    96    -9     0.0    10
    28     4  1993    97    -9     0.0    10
    29     4  1993    98    -9     0.0    10
    30     4  1993    99    -9     0.0    10
     1     5  1993   100    -9     0.0    10
     2     5  1993   101    -9     0.0    10
     3     5  1993   102    -9     0.0    10
     4     5  1993   103    -9    61.1    10
     5     5  1993   104    -9     0.0    -9
     6     5  1993   105    -9     0.0    -9
     7     5  1993   106    -9     0.0    -9
     8     5  1993   107    -9     0.0    -9
     9     5  1993   108    -9     0.0    -9
    10     5  1993   109    -9     0.0    -9
    11     5  1993   110    -9     0.0    -9
