AquaCrop 7.2 (August 2024) - Output created on (date) : 12-12-2024   at (time) : 03:20:04

   Day Month  Year   DAP Stage   WC(1.20)   Rain     Irri   Surf   Infilt   RO    Drain       CR    Zgwt       Ex       E     E/Ex     Trx       Tr  Tr/Trx    ETx      ET  ET/ETx      GD       Z     StExp  StSto  StSen StSalt StWeed   CC      CCw     StTr  Kc(Tr)     Trx       Tr      TrW  Tr/Trx   WP    Biomass     HI    Y(dry)  Y(fresh)  Brelative    WPet      Bin     Bout  WC(1.20) Wr(0.61)     Z       Wr    Wr(SAT)    Wr(FC)   Wr(exp)   Wr(sto)   Wr(sen)   Wr(PWP)    SaltIn    SaltOut   SaltUp   Salt(1.20)  SaltZ     Z       ECe    ECsw   StSalt  Zgwt    ECgw       WC01       WC 2       WC 3       WC 4       WC 5       WC 6       WC 7       WC 8       WC 9       WC10       WC11       WC12      ECe01      ECe 2      ECe 3      ECe 4      ECe 5      ECe 6      ECe 7      ECe 8      ECe 9      ECe10      ECe11      ECe12     Rain       ETo      Tmin      Tavg      Tmax      CO2
                                      mm      mm       mm     mm     mm     mm       mm       mm      m        mm       mm     %        mm       mm    %        mm      mm       %  degC-day     m       %      %      %      %      %      %       %       %       -        mm       mm       mm    %     g/m2    ton/ha      %    ton/ha   ton/ha       %       kg/m3   ton/ha   ton/ha      mm       mm       m       mm        mm        mm        mm        mm        mm         mm    ton/ha    ton/ha    ton/ha    ton/ha    ton/ha     m      dS/m    dS/m      %     m      dS/m       0.05       0.15       0.25       0.35       0.45       0.55       0.65       0.75       0.85       0.95       1.05       1.15       0.05       0.15       0.25       0.35       0.45       0.55       0.65       0.75       0.85       0.95       1.05       1.15       mm        mm     degC      degC      degC       ppm
    22     1  1996     1     1     310.6     0.0     51.0    0.0   51.0    0.0      0.0      0.0   -9.90      4.4      4.4    100      0.0      0.0   100      4.4     4.4     100     15.6    0.30     -9     -9     -9      0     -9     0.0     0.0      0    -9.00      0.0      0.0      0.0   100     0.0     0.000    -9.9    0.000    0.000      -9        0.00    0.000    0.000     310.6    180.7    0.30   112.6     123.0      66.0      60.6      47.4      40.8      30.0    0.490     0.000     0.000     0.490     0.485    0.30     0.62    0.67      0   -9.90   -9.00       36.6       41.0       35.0       22.0       22.0       22.0       22.0       22.0       22.0       22.0       22.0       22.0        1.0        0.6        0.2        0.0        0.0        0.0        0.0        0.0        0.0        0.0        0.0        0.0      0.0       4.4      18.1      22.6      27.0    362.74
    23     1  1996     2     1     263.9     0.0      0.0    0.0    0.0    0.0     42.7      0.0   -9.90      4.5      4.0     89      0.0      0.0   100      4.5     4.0      89     14.3    0.30     -9     -9     -9      0     -9     0.0     0.0      0    -9.00      0.0      0.0      0.0   100     0.0     0.000    -9.9    0.000    0.000      -9        0.00    0.000    0.000     263.9    131.8    0.30    62.5     123.0      66.0      60.6      47.6      40.8      30.0    0.000     0.004     0.000     0.486     0.331    0.30     0.42    0.85      0   -9.90   -9.00       18.3       22.0       22.2       22.3       22.4       22.5       22.4       22.4       22.4       22.4       22.3       22.3        0.6        0.4        0.3        0.2        0.1        0.1        0.1        0.0        0.0        0.0        0.0        0.0      0.0       4.6      16.8      21.3      25.8    362.74
    24     1  1996     3     1     258.3     0.0      0.0    0.0    0.0    0.0      3.2      0.0   -9.90      4.3      2.4     55      0.0      0.0   100      4.3     2.4      55     14.2    0.30     -9     -9     -9      0     -9     0.0     0.0      0    -9.00      0.0      0.0      0.0   100     0.0     0.000    -9.9    0.000    0.000      -9        0.00    0.000    0.000     258.3    128.2    0.30    59.9     123.0      66.0      60.6      47.3      40.8      30.0    0.000     0.001     0.000     0.485     0.327    0.30     0.42    0.90      0   -9.90   -9.00       15.9       22.0       22.0       22.0       22.0       22.0       22.0       22.0       22.0       22.0       22.0       22.0        0.5        0.4        0.3        0.2        0.1        0.1        0.1        0.0        0.0        0.0        0.0        0.0      0.0       4.4      16.8      21.2      25.6    362.74
    25     1  1996     4     1     256.1     0.0      0.0    0.0    0.0    0.0      0.3      0.0   -9.90      4.8      1.8     38      0.0      0.0   100      4.8     1.8      38     15.0    0.30     -9     -9     -9      0     -9     0.0     0.0      0    -9.00      0.0      0.0      0.0   100     0.0     0.000    -9.9    0.000    0.000      -9        0.00    0.000    0.000     256.1    126.2    0.30    58.1     123.0      66.0      60.6      47.8      40.8      30.0    0.000     0.000     0.000     0.485     0.324    0.30     0.41    0.94      0   -9.90   -9.00       14.1       22.0       22.0       22.0       22.0       22.0       22.0       22.0       22.0       22.0       22.0       22.0        0.5        0.4        0.3        0.2        0.1        0.1        0.1        0.0        0.0        0.0        0.0        0.0      0.0       4.8      17.4      22.0      26.6    362.74
    26     1  1996     5     1     254.8     0.0      0.0    0.0    0.0    0.0      0.0      0.0   -9.90      4.7      1.4     29      0.0      0.0   100      4.7     1.4      29     15.8    0.30     -9     -9     -9      0     -9     0.0     0.0      0    -9.00      0.0      0.0      0.0   100     0.0     0.000    -9.9    0.000    0.000      -9        0.00    0.000    0.000     254.8    124.9    0.30    56.8     123.0      66.0      60.6      47.7      40.8      30.0    0.000     0.000     0.000     0.485     0.321    0.30     0.41    0.97      0   -9.90   -9.00       12.8       22.0       22.0       22.0       22.0       22.0       22.0       22.0       22.0       22.0       22.0       22.0        0.5        0.5        0.3        0.2        0.1        0.1        0.1        0.0        0.0        0.0        0.0        0.0      0.0       4.7      18.2      22.8      27.4    362.74
    27     1  1996     6     1     253.7     0.0      0.0    0.0    0.0    0.0      0.0      0.0   -9.90      4.4      1.0     23      0.0      0.0   100      4.4     1.0      23     17.2    0.30     -9     -9     -9      0     -9     0.0     0.0      0    -9.00      0.0      0.0      0.0   100     0.0     0.000    -9.9    0.000    0.000      -9        0.00    0.000    0.000     253.7    123.8    0.30    55.7     123.0      66.0      60.6      47.4      40.8      30.0    0.000     0.000     0.000     0.485     0.318    0.30     0.40    0.99      0   -9.90   -9.00       11.7       22.0       22.0       22.0       22.0       22.0       22.0       22.0       22.0       22.0       22.0       22.0        0.4        0.5        0.3        0.2        0.1        0.1        0.1        0.0        0.0        0.0        0.0        0.0      0.0       4.5      20.5      26.6      32.7    362.74
    28     1  1996     7     1     252.9     0.0      0.0    0.0    0.0    0.0      0.0      0.0   -9.90      4.1      0.8     20      0.0      0.0   100      4.1     0.8      20     16.9    0.30     -9     -9     -9      0     -9     0.0     0.0      0    -9.00      0.0      0.0      0.0   100     0.0     0.000    -9.9    0.000    0.000      -9        0.00    0.000    0.000     252.9    123.0    0.30    54.9     123.0      66.0      60.6      47.1      40.8      30.0    0.000     0.000     0.000     0.485     0.315    0.30     0.40    1.00      0   -9.90   -9.00       10.9       22.0       22.0       22.0       22.0       22.0       22.0       22.0       22.0       22.0       22.0       22.0        0.4        0.5        0.3        0.2        0.1        0.1        0.1        0.0        0.0        0.0        0.0        0.0      0.0       4.2      19.8      25.4      30.9    362.74
    29     1  1996     8     1     301.9     1.0     51.0    0.0   52.0    0.0      0.0      0.0   -9.90      3.0      3.0    100      0.0      0.0   100      3.0     3.0     100     16.9    0.30     -9     -9     -9      0     -9     0.0     0.0      0    -9.00      0.0      0.0      0.0   100     0.0     0.000    -9.9    0.000    0.000      -9        0.00    0.000    0.000     301.9    172.1    0.30   103.9     123.0      66.0      60.6      45.8      40.8      30.0    0.490     0.000     0.000     0.975     0.800    0.30     1.02    1.15      0   -9.90   -9.00       38.0       41.0       24.9       22.0       22.0       22.0       22.0       22.0       22.0       22.0       22.0       22.0        1.4        1.2        0.4        0.2        0.1        0.1        0.1        0.0        0.0        0.0        0.0        0.0      1.0       3.0      21.7      23.9      26.0    362.74
    30     1  1996     9     1     263.8     0.0      0.0    0.0    0.0    0.0     34.3      0.0   -9.90      3.9      3.9     98      0.0      0.0   100      3.9     3.9      98     17.1    0.30     -9     -9     -9      0     -9     0.0     0.0      0    -9.00      0.0      0.0      0.0   100     0.0     0.000    -9.9    0.000    0.000      -9        0.00    0.000    0.000     263.8    132.0    0.30    62.5     123.0      66.0      60.6      46.9      40.8      30.0    0.000     0.013     0.000     0.961     0.543    0.30     0.69    1.38      0   -9.90   -9.00       18.4       22.0       22.1       22.4       22.5       22.4       22.4       22.4       22.3       22.3       22.3       22.3        0.8        0.7        0.6        0.4        0.3        0.3        0.2        0.1        0.1        0.1        0.0        0.0      0.0       4.0      20.1      24.1      28.1    362.74
    31     1  1996    10     2     257.5     0.0      0.0    0.0    0.0    0.0      3.1      0.0   -9.90      4.8      3.1     65      0.1      0.1   100      4.9     3.2      65     17.6    0.31     -9      0      0      0      0     0.8     0.8      0     0.01      0.1      0.1      0.1   100    17.7     0.002    -9.9    0.000    0.000     100        0.00    0.000    0.000     257.5    127.5    0.31    60.5     125.4      67.3      61.7      48.9      41.5      30.6    0.000     0.002     0.000     0.959     0.544    0.31     0.68    1.47      0   -9.90   -9.00       15.2       22.0       22.0       22.0       22.0       22.0       22.0       22.0       22.0       22.0       22.0       22.0        0.8        0.7        0.6        0.4        0.3        0.3        0.2        0.1        0.1        0.1        0.1        0.0      0.0       4.9      21.3      25.9      30.5    362.74
     1     2  1996    11     2     255.1     0.0      0.0    0.0    0.0    0.0      0.3      0.0   -9.90      5.3      2.1     40      0.1      0.1   100      5.3     2.2      41     18.6    0.32      2      0      0      0      0     0.9     0.9      0     0.02      0.1      0.1      0.1   100    17.7     0.005    -9.9    0.000    0.000     100        0.00    0.000    0.000     255.1    125.2    0.32    60.6     129.7      69.6      64.5      51.1      43.4      31.6    0.000     0.000     0.000     0.959     0.552    0.32     0.66    1.54      0   -9.90   -9.00       13.0       22.0       22.0       22.0       22.0       22.0       22.0       22.0       22.0       22.0       22.0       22.0        0.7        0.7        0.6        0.4        0.3        0.3        0.2        0.1        0.1        0.1        0.1        0.0      0.0       5.4      23.3      28.5      33.6    362.74
     2     2  1996    12     2     253.3     0.0      0.0    0.0    0.0    0.0      0.0      0.0   -9.90      5.9      1.6     28      0.1      0.1   100      6.0     1.7      29     18.7    0.33      7      0      0      0      0     1.0     1.0      0     0.02      0.1      0.1      0.1   100    17.7     0.008    -9.9    0.000    0.000      99        0.00    0.000    0.000     253.3    123.4    0.33    61.1     133.8      71.8      67.4      53.4      45.3      32.6    0.000     0.000     0.000     0.959     0.559    0.33     0.65    1.59      0   -9.90   -9.00       11.3       22.0       22.0       22.0       22.0       22.0       22.0       22.0       22.0       22.0       22.0       22.0        0.7        0.8        0.6        0.4        0.3        0.3        0.2        0.1        0.1        0.1        0.1        0.0      0.0       6.0      23.4      28.7      34.0    362.74
     3     2  1996    13     2     252.2     0.0      0.0    0.0    0.0    0.0      0.0      0.0   -9.90      4.9      1.0     21      0.1      0.1   100      5.0     1.1      23     17.6    0.34      8      0      0      0      0     1.1     1.1      0     0.02      0.1      0.1      0.1   100    17.7     0.012    -9.9    0.000    0.000      99        0.00    0.000    0.000     252.2    122.3    0.34    62.0     137.6      73.9      68.0      53.8      45.7      33.6    0.000     0.000     0.000     0.959     0.566    0.34     0.64    1.61      0   -9.90   -9.00       10.2       22.0       22.0       22.0       22.0       22.0       22.0       22.0       22.0       22.0       22.0       22.0        0.6        0.8        0.6        0.4        0.3        0.3        0.2        0.1        0.1        0.1        0.1        0.0      0.0       5.1      21.1      26.8      32.4    362.74
     4     2  1996    14     2     251.2     0.0      0.0    0.0    0.0    0.0      0.0      0.0   -9.90      4.9      0.9     17      0.1      0.1   100      5.0     1.0      19     16.4    0.34     10      0      0      0      0     1.2     1.2      0     0.02      0.1      0.1      0.1   100    17.7     0.016    -9.9    0.000    0.000      98        0.00    0.000    0.000     251.2    121.3    0.34    63.1     141.4      75.9      69.8      55.3      47.0      34.5    0.000     0.000     0.000     0.959     0.573    0.34     0.63    1.62      0   -9.90   -9.00        9.3       21.9       22.0       22.0       22.0       22.0       22.0       22.0       22.0       22.0       22.0       22.0        0.6        0.8        0.6        0.5        0.3        0.3        0.2        0.1        0.1        0.1        0.1        0.0      0.0       5.1      18.8      25.3      31.8    362.74
     5     2  1996    15     2     297.7     0.0     51.0    0.0   51.0    0.0      0.0      0.0   -9.90      4.3      4.3    100      0.1      0.1   100      4.5     4.5     100     16.9    0.35      0      0      0      0      0     1.4     1.4      0     0.03      0.1      0.1      0.1   100    17.7     0.020    -9.9    0.000    0.000      98        0.00    0.000    0.000     297.7    167.8    0.35   111.5     145.0      77.8      70.7      56.0      47.6      35.4    0.490     0.000     0.000     1.449     1.069    0.35     1.15    1.42      0   -9.90   -9.00       36.5       41.0       22.2       22.0       22.0       22.0       22.0       22.0       22.0       22.0       22.0       22.0        1.7        1.6        0.6        0.5        0.3        0.3        0.2        0.1        0.1        0.1        0.1        0.0      0.0       4.5      19.8      25.4      31.0    362.74
     6     2  1996    16     2     263.3     0.0      0.0    0.0    0.0    0.0     30.1      0.0   -9.90      4.8      4.2     87      0.1      0.1   100      4.9     4.3      88     16.0    0.36      0      0      0      0      0     1.6     1.6      0     0.03      0.1      0.1      0.1   100    17.7     0.025    -9.9    0.000    0.000      98        0.00    0.000    0.000     263.3    131.6    0.36    76.2     148.5      79.7      73.2      58.0      49.3      36.2    0.000     0.029     0.000     1.419     0.800    0.36     0.84    1.67      0   -9.90   -9.00       18.0       22.0       22.2       22.4       22.4       22.4       22.4       22.3       22.3       22.3       22.3       22.2        1.0        0.9        0.8        0.7        0.5        0.4        0.3        0.3        0.2        0.1        0.1        0.1      0.0       5.0      18.0      23.8      29.5    362.74
     7     2  1996    17     2     257.6     0.0      0.0    0.0    0.0    0.0      3.0      0.0   -9.90      4.9      2.5     51      0.2      0.2   100      5.1     2.7      53     16.6    0.37      0      0      0      0      0     1.8     1.8      0     0.03      0.2      0.2      0.2   100    17.7     0.031    -9.9    0.000    0.000      98        0.00    0.000    0.000     257.6    127.6    0.37    74.9     152.0      81.5      75.1      59.5      50.5      37.1    0.000     0.005     0.000     1.415     0.805    0.37     0.83    1.75      0   -9.90   -9.00       15.3       22.0       22.0       22.0       22.0       22.0       22.0       22.0       22.0       22.0       22.0       22.0        0.9        0.9        0.8        0.6        0.5        0.4        0.3        0.3        0.2        0.2        0.1        0.1      0.0       5.1      19.3      25.4      31.4    362.74
     8     2  1996    18     2     255.4     0.0      0.0    0.0    0.0    0.0      0.3      0.0   -9.90      5.0      1.7     35      0.2      0.2   100      5.2     1.9      37     15.9    0.38      0      0      0      0      0     2.1     2.1      0     0.04      0.2      0.2      0.2   100    17.7     0.037    -9.9    0.000    0.000      97        0.00    0.000    0.000     255.4    125.5    0.38    74.7     155.3      83.3      76.9      60.9      51.7      37.9    0.000     0.001     0.000     1.414     0.814    0.38     0.82    1.81      0   -9.90   -9.00       13.4       22.0       22.0       22.0       22.0       22.0       22.0       22.0       22.0       22.0       22.0       22.0        0.9        0.9        0.8        0.6        0.5        0.4        0.3        0.3        0.2        0.2        0.1        0.1      0.0       5.2      17.7      24.5      31.3    362.74
     9     2  1996    19     2     253.8     0.0      0.0    0.0    0.0    0.0      0.0      0.0   -9.90      5.2      1.3     26      0.2      0.2   100      5.4     1.5      29     16.6    0.39      2      0      0      0      0     2.4     2.4      0     0.04      0.2      0.2      0.2   100    17.7     0.045    -9.9    0.000    0.000      97        0.00    0.000    0.000     253.8    124.0    0.39    74.9     158.6      85.1      78.9      62.5      53.0      38.7    0.000     0.000     0.000     1.414     0.824    0.39     0.81    1.86      0   -9.90   -9.00       11.8       22.0       22.0       22.0       22.0       22.0       22.0       22.0       22.0       22.0       22.0       22.0        0.8        1.0        0.8        0.6        0.5        0.4        0.3        0.3        0.2        0.2        0.1        0.1      0.0       5.4      19.3      26.5      33.8    362.74
    10     2  1996    20     2     252.6     0.0      0.0    0.0    0.0    0.0      0.0      0.0   -9.90      5.0      1.0     20      0.3      0.3   100      5.3     1.3      24     16.3    0.39      4      0      0      0      0     2.7     2.7      0     0.05      0.3      0.3      0.3   100    17.7     0.053    -9.9    0.000    0.000      97        0.00    0.000    0.000     252.6    122.7    0.39    75.4     161.7      86.8      80.2      63.6      54.0      39.4    0.000     0.000     0.000     1.414     0.833    0.39     0.80    1.90      0   -9.90   -9.00       10.6       22.0       22.0       22.0       22.0       22.0       22.0       22.0       22.0       22.0       22.0       22.0        0.8        1.0        0.8        0.7        0.5        0.4        0.3        0.3        0.2        0.2        0.1        0.1      0.0       5.3      18.6      25.1      31.6    362.74
    11     2  1996    21     2     251.4     0.0      0.0    0.0    0.0    0.0      0.0      0.0   -9.90      5.5      0.9     16      0.3      0.3   100      5.8     1.2      21     15.9    0.40      7      0      0      0      0     3.0     3.0      0     0.05      0.3      0.3      0.3   100    17.7     0.063    -9.9    0.000    0.000      97        0.00    0.000    0.000     251.4    121.5    0.40    75.9     164.9      88.5      82.8      65.6      55.6      40.2    0.000     0.000     0.000     1.414     0.842    0.40     0.80    1.92      0   -9.90   -9.00        9.7       21.7       22.0       22.0       22.0       22.0       22.0       22.0       22.0       22.0       22.0       22.0        0.7        1.0        0.8        0.7        0.5        0.4        0.3        0.3        0.2        0.2        0.1        0.1      0.0       5.8      17.9      24.9      31.8    362.74
    12     2  1996    22     2     296.2     0.0     51.0    0.0   51.0    0.0      0.0      0.0   -9.90      5.8      5.8    100      0.4      0.4   100      6.2     6.2     100     15.9    0.41      0      0      0      0      0     3.4     3.4      0     0.06      0.4      0.4      0.4   100    17.7     0.073    -9.9    0.000    0.000      96        0.00    0.000    0.000     296.2    166.3    0.41   122.3     167.9      90.1      85.1      67.4      57.1      41.0    0.490     0.000     0.000     1.904     1.338    0.41     1.25    1.64      0   -9.90   -9.00       34.8       41.0       22.4       22.0       22.0       22.0       22.0       22.0       22.0       22.0       22.0       22.0        1.8        1.8        0.8        0.7        0.5        0.4        0.3        0.3        0.2        0.2        0.1        0.1      0.0       6.3      17.7      25.2      32.8    362.74
    13     2  1996    23     2     262.6     0.0      0.0    0.0    0.0    0.0     28.5      0.0   -9.90      6.3      4.5     72      0.5      0.5   100      6.7     5.0      74     18.0    0.42      0      0      0      0      0     3.9     3.9      0     0.07      0.5      0.5      0.5   100    17.7     0.086    -9.9    0.000    0.000      96        0.00    0.000    0.000     262.6    131.1    0.42    87.9     170.9      91.7      87.5      69.3      58.7      41.7    0.000     0.054     0.000     1.850     1.048    0.42     0.96    1.90      0   -9.90   -9.00       17.4       22.0       22.2       22.4       22.4       22.4       22.4       22.3       22.3       22.3       22.2       22.2        1.1        1.0        0.9        0.8        0.7        0.6        0.5        0.4        0.3        0.3        0.2        0.2      0.0       6.8      22.0      27.9      33.9    362.74
    14     2  1996    24     2     257.0     0.0      0.0    0.0    0.0    0.0      2.9      0.0   -9.90      5.6      2.2     39      0.5      0.5   100      6.0     2.7      44     16.9    0.42      0      0      0      0      0     4.4     4.4      0     0.08      0.5      0.5      0.5   100    17.7     0.100    -9.9    0.000    0.000      96        0.00    0.000    0.000     257.0    127.0    0.42    86.1     173.9      93.3      87.7      69.5      58.9      42.4    0.000     0.009     0.000     1.840     1.047    0.42     0.94    1.98      0   -9.90   -9.00       14.7       22.0       22.0       22.0       22.0       22.0       22.0       22.0       22.0       22.0       22.0       22.0        1.0        1.0        0.9        0.8        0.7        0.6        0.5        0.4        0.3        0.3        0.2        0.2      0.0       6.1      19.9      26.5      33.1    362.74
    15     2  1996    25     2     254.7     0.0      0.0    0.0    0.0    0.0      0.3      0.0   -9.90      5.5      1.5     27      0.5      0.5   100      6.0     2.0      33     15.9    0.43      1      0      0      0      0     5.1     5.1      0     0.09      0.5      0.5      0.5   100    17.7     0.115    -9.9    0.000    0.000      96        0.00    0.000    0.000     254.7    124.8    0.43    85.6     176.8      94.9      89.1      70.6      59.9      43.1    0.000     0.001     0.000     1.839     1.055    0.43     0.93    2.05      0   -9.90   -9.00       12.7       22.0       22.0       22.0       22.0       22.0       22.0       22.0       22.0       22.0       22.0       22.0        1.0        1.1        0.9        0.8        0.7        0.6        0.5        0.4        0.3        0.3        0.2        0.2      0.0       6.0      17.9      25.6      33.2    362.74
    16     2  1996    26     2     252.8     0.0      0.0    0.0    0.0    0.0      0.0      0.0   -9.90      6.2      1.2     20      0.7      0.7   100      6.9     1.9      28     17.4    0.44      5      0      0      0      0     5.7     5.7      0     0.10      0.7      0.7      0.7   100    17.7     0.133    -9.9    0.000    0.000      96        0.00    0.000    0.000     252.8    122.9    0.44    85.2     179.6      96.4      92.3      73.1      61.9      43.8    0.000     0.000     0.000     1.839     1.064    0.44     0.93    2.13      0   -9.90   -9.00       10.8       22.0       22.0       22.0       22.0       22.0       22.0       22.0       22.0       22.0       22.0       22.0        0.9        1.1        0.9        0.8        0.7        0.6        0.5        0.4        0.3        0.3        0.2        0.2      0.0       6.9      20.7      27.9      35.0    362.74
    17     2  1996    27     2     251.1     0.0      0.0    0.0    0.0    0.0      0.0      0.0   -9.90      6.3      0.9     14      0.8      0.8   100      7.1     1.7      24     17.9    0.44      9      0      0      0      0     6.4     6.4      0     0.11      0.8      0.8      0.8   100    17.7     0.153    -9.9    0.000    0.000      95        0.00    0.000    0.000     251.1    121.2    0.44    85.0     182.4      97.9      94.2      74.6      63.1      44.5    0.000     0.000     0.000     1.839     1.073    0.44     0.92    2.17      0   -9.90   -9.00        9.9       21.2       22.0       22.0       22.0       22.0       22.0       22.0       22.0       22.0       22.0       22.0        0.9        1.2        0.9        0.8        0.7        0.6        0.5        0.4        0.3        0.3        0.2        0.2      0.0       7.1      21.7      28.0      34.3    362.74
    18     2  1996    28     2     249.5     0.0      0.0    0.0    0.0    0.0      0.0      0.0   -9.90      6.0      0.7     12      0.9      0.9   100      6.9     1.6      23     16.6    0.45     11      0      0      0      0     7.2     7.2      0     0.13      0.9      0.9      0.9   100    17.7     0.175    -9.9    0.000    0.000      95        0.00    0.000    0.000     249.5    119.7    0.45    84.9     185.2      99.4      95.1      75.3      63.8      45.2    0.000     0.000     0.000     1.839     1.082    0.45     0.91    2.21      0   -9.90   -9.00        9.2       20.3       22.0       22.0       22.0       22.0       22.0       22.0       22.0       22.0       22.0       22.0        0.8        1.2        1.0        0.8        0.7        0.6        0.5        0.4        0.3        0.3        0.2        0.2      0.0       6.9      19.3      27.1      35.0    362.74
    19     2  1996    29     2     294.5     0.0     51.0    0.0   51.0    0.0      0.0      0.0   -9.90      5.2      5.2    100      0.9      0.9   100      6.0     6.0     100     16.4    0.46      0      0      0      0      0     8.2     8.2      0     0.14      0.9      0.9      0.9   100    17.7     0.200    -9.9    0.000    0.000      95        0.00    0.000    0.000     294.5    164.6    0.46   131.3     188.0     100.9      94.8      75.1      63.7      45.8    0.490     0.000     0.000     2.329     1.581    0.46     1.31    1.81      0   -9.90   -9.00       35.0       39.5       22.0       22.0       22.0       22.0       22.0       22.0       22.0       22.0       22.0       22.0        1.9        2.0        1.0        0.8        0.7        0.6        0.5        0.4        0.3        0.3        0.2        0.2      0.0       6.1      18.7      27.2      35.7    362.74
    20     2  1996    30     2     263.1     0.0      0.0    0.0    0.0    0.0     26.8      0.0   -9.90      4.5      3.8     85      0.8      0.8   100      5.3     4.6      87     16.6    0.47      0      0      0      0      0     9.4     9.4      0     0.16      0.8      0.8      0.8   100    17.7     0.228    -9.9    0.000    0.000      94        0.00    0.000    0.000     263.1    131.6    0.47    99.2     190.7     102.3      93.7      74.2      63.1      46.5    0.000     0.082     0.000     2.247     1.282    0.47     1.05    2.05      0   -9.90   -9.00       17.8       22.1       22.3       22.4       22.4       22.4       22.3       22.3       22.3       22.3       22.2       22.2        1.1        1.1        1.1        1.0        0.9        0.8        0.7        0.6        0.5        0.4        0.3        0.3      0.0       4.9      19.2      25.1      31.0    362.74
    21     2  1996    31     2     257.1     0.0      0.0    0.0    0.0    0.0      3.0      0.0   -9.90      4.4      2.1     47      1.0      1.0   100      5.4     3.0      56     16.6    0.47      0      0      0      0      0    10.7    10.7      0     0.18      1.0      1.0      1.0   100    17.7     0.260    -9.9    0.000    0.000      94        0.00    0.000    0.000     257.1    127.0    0.47    96.6     193.3     103.7      96.1      76.1      64.6      47.2    0.000     0.015     0.000     2.232     1.275    0.47     1.03    2.13      0   -9.90   -9.00       14.7       22.0       22.0       22.0       22.0       22.0       22.0       22.0       22.0       22.0       22.0       22.0        1.1        1.1        1.1        1.0        0.9        0.7        0.6        0.6        0.5        0.4        0.3        0.3      0.0       5.4      19.2      25.6      32.1    362.74
    22     2  1996    32     2     254.5     0.0      0.0    0.0    0.0    0.0      0.3      0.0   -9.90      4.1      1.2     30      1.0      1.0   100      5.1     2.3      44     16.8    0.48      0      0      0      0      0    12.2    12.2      0     0.20      1.0      1.0      1.0   100    17.7     0.296    -9.9    0.000    0.000      94        0.00    0.000    0.000     254.5    124.6    0.48    95.6     196.0     105.1      96.8      76.7      65.1      47.8    0.000     0.002     0.000     2.230     1.284    0.48     1.02    2.22      0   -9.90   -9.00       12.5       22.0       22.0       22.0       22.0       22.0       22.0       22.0       22.0       22.0       22.0       22.0        1.0        1.2        1.0        1.0        0.8        0.7        0.6        0.6        0.5        0.4        0.3        0.3      0.0       5.1      19.5      24.8      30.1    362.74
    23     2  1996    33     2     252.1     0.0      0.0    0.0    0.0    0.0      0.0      0.0   -9.90      4.8      1.0     21      1.4      1.4   100      6.2     2.4      39     17.0    0.48      3      0      0      0      0    13.8    13.8      0     0.23      1.4      1.4      1.4   100    17.7     0.337    -9.9    0.000    0.000      94        0.00    0.000    0.000     252.1    122.2    0.48    94.6     198.6     106.5     100.5      79.6      67.5      48.4    0.000     0.000     0.000     2.230     1.295    0.48     1.02    2.35      0   -9.90   -9.00       10.1       22.0       22.0       22.0       22.0       22.0       22.0       22.0       22.0       22.0       22.0       22.0        1.0        1.2        1.1        0.9        0.8        0.7        0.6        0.6        0.5        0.4        0.3        0.3      0.0       6.2      20.0      26.5      33.0    362.74
    24     2  1996    34     2     249.7     0.0      0.0    0.0    0.0    0.0      0.0      0.0   -9.90      5.0      0.7     14      1.7      1.7   100      6.7     2.4      36     17.6    0.49      7      0      0      0      0    15.6    15.6      0     0.26      1.7      1.7      1.7   100    17.7     0.383    -9.9    0.000    0.000      93        0.00    0.000    0.000     249.7    119.8    0.49    93.6     201.1     107.9     102.8      81.4      68.9      49.1    0.000     0.000     0.000     2.230     1.305    0.49     1.01    2.40      0   -9.90   -9.00        9.4       20.3       22.0       22.0       22.0       22.0       22.0       22.0       22.0       22.0       22.0       22.0        0.9        1.3        1.1        1.0        0.8        0.7        0.6        0.6        0.5        0.4        0.3        0.3      0.0       6.7      21.3      27.9      34.4    362.74
    25     2  1996    35     2     247.1     0.0      0.0    0.0    0.0    0.0      0.0      0.0   -9.90      5.1      0.5     10      2.0      2.0   100      7.2     2.6      36     17.9    0.50     12      0      0      0      0    17.4    17.4      0     0.28      2.0      2.0      2.0   100    17.7     0.433    -9.9    0.000    0.000      93        0.00    0.000    0.000     247.1    117.2    0.50    92.4     203.7     109.3     105.1      83.2      70.4      49.7    0.000     0.000     0.000     2.230     1.316    0.50     1.01    2.46      0   -9.90   -9.00        8.8       18.3       22.0       22.0       22.0       22.0       22.0       22.0       22.0       22.0       22.0       22.0        0.9        1.3        1.1        1.0        0.8        0.7        0.7        0.6        0.5        0.4        0.3        0.3      0.0       7.1      21.8      27.9      34.0    362.74
    26     2  1996    36     2     291.3     0.0     51.0    0.0   51.0    0.0      0.0      0.0   -9.90      4.7      4.7    100      2.2      2.2   100      6.8     6.8     100     17.2    0.50      0      0      0      0      0    19.9    19.9      0     0.32      2.2      2.2      2.2   100    17.7     0.490    -9.9    0.000    0.000      93        0.00    0.000    0.000     291.3    161.4    0.50   137.9     206.2     110.6     105.6      83.6      70.8      50.3    0.490     0.000     0.000     2.719     1.815    0.50     1.38    2.00      0   -9.90   -9.00       34.2       37.1       22.0       22.0       22.0       22.0       22.0       22.0       22.0       22.0       22.0       22.0        1.9        2.1        1.1        1.0        0.8        0.7        0.7        0.6        0.5        0.4        0.3        0.3      0.0       6.8      20.5      27.7      34.9    362.74
    27     2  1996    37     2     261.3     0.0      0.0    0.0    0.0    0.0     23.5      0.0   -9.90      4.7      4.1     87      2.4      2.4   100      7.1     6.5      92     18.1    0.51      0      0      0      0      0    22.6    22.6      0     0.36      2.4      2.4      2.4   100    17.7     0.553    -9.9    0.000    0.000      92        0.00    0.000    0.000     261.3    129.9    0.51   107.4     208.7     112.0     106.9      84.7      71.7      50.9    0.000     0.101     0.000     2.618     1.532    0.51     1.15    2.28      0   -9.90   -9.00       15.9       22.3       22.4       22.4       22.4       22.4       22.3       22.3       22.3       22.2       22.2       22.2        1.2        1.3        1.2        1.1        1.0        0.9        0.8        0.7        0.6        0.5        0.4        0.4      0.0       6.8      22.2      28.5      34.9    362.74
    28     2  1996    38     2     254.3     0.0      0.0    0.0    0.0    0.0      3.0      0.0   -9.90      4.1      1.5     37      2.4      2.4   100      6.4     3.9      61     16.9    0.51      0      0      0      0      0    25.8    25.8      0     0.40      2.4      2.4      2.4   100    17.7     0.624    -9.9    0.000    0.000      92        0.00    0.000    0.000     254.3    124.3    0.51   103.4     211.1     113.3     106.2      84.1      71.4      51.5    0.000     0.022     0.000     2.596     1.516    0.51     1.12    2.44      0   -9.90   -9.00       12.0       22.0       22.0       22.0       22.0       22.0       22.0       22.0       22.0       22.0       22.0       22.0        1.2        1.3        1.2        1.1        1.0        0.9        0.8        0.7        0.6        0.5        0.4        0.4      0.0       6.0      19.7      26.5      33.3    362.74
    29     2  1996    39     2     250.7     0.0      0.0    0.0    0.0    0.0      0.3      0.0   -9.90      3.4      0.7     20      2.6      2.6   100      6.0     3.3      55     17.2    0.52      2      0      0      0      0    29.3    29.3      0     0.45      2.6      2.6      2.6   100    17.7     0.703    -9.9    0.000    0.000      92        0.00    0.000    0.000     250.7    120.8    0.52   101.3     213.6     114.6     107.4      85.1      72.2      52.1    0.000     0.002     0.000     2.594     1.524    0.52     1.11    2.65      0   -9.90   -9.00        8.9       21.8       22.0       22.0       22.0       22.0       22.0       22.0       22.0       22.0       22.0       22.0        1.1        1.3        1.2        1.1        1.0        0.9        0.8        0.7        0.6        0.5        0.4        0.4      0.0       5.9      20.5      26.6      32.8    362.74
     1     3  1996    40     2     247.2     0.0      0.0    0.0    0.0    0.0      0.0      0.0   -9.90      3.3      0.4     12      3.1      3.1   100      6.3     3.5      54     17.8    0.53      6      0      0      0      0    33.1    33.1      0     0.49      3.1      3.1      3.1   100    17.7     0.790    -9.9    0.000    0.000      92        0.00    0.000    0.000     247.2    117.3    0.53    99.1     216.0     115.9     109.3      86.6      73.4      52.7    0.000     0.000     0.000     2.594     1.534    0.53     1.11    2.71      0   -9.90   -9.00        8.5       18.7       22.0       22.0       22.0       22.0       22.0       22.0       22.0       22.0       22.0       22.0        1.0        1.4        1.2        1.1        1.0        0.9        0.8        0.7        0.6        0.5        0.4        0.4      0.0       6.2      21.5      28.4      35.2    362.74
     2     3  1996    41     2     244.0     0.0      0.0    0.0    0.0    0.0      0.0      0.0   -9.90      2.7      0.2      8      3.1      3.1   100      5.7     3.3      57     17.7    0.53      9      0      0      0      0    37.2    37.2      0     0.54      3.1      3.1      3.1   100    17.7     0.886    -9.9    0.000    0.000      92        0.00    0.000    0.000     244.0    114.1    0.53    97.1     218.4     117.2     109.1      86.4      73.3      53.3    0.000     0.000     0.000     2.594     1.544    0.53     1.10    2.79      0   -9.90   -9.00        8.3       15.6       22.0       22.0       22.0       22.0       22.0       22.0       22.0       22.0       22.0       22.0        0.9        1.4        1.2        1.1        1.0        0.9        0.8        0.7        0.6        0.5        0.4        0.4      0.0       5.6      21.4      27.6      33.8    362.74
     3     3  1996    42     2     240.6     0.0      0.0    0.0    0.0    0.0      0.0      0.0   -9.90      2.4      0.1      6      3.2      3.2   100      5.6     3.3      60     18.0    0.54     14      0      0      0      0    41.2    41.2      0     0.59      3.2      3.2      3.2   100    17.7     0.990    -9.9    0.000    0.000      92        0.00    0.000    0.000     240.6    110.7    0.54    95.1     220.8     118.5     109.8      87.0      73.9      53.8    0.000     0.000     0.000     2.594     1.554    0.54     1.10    2.94      0   -9.90   -9.00        8.2       12.5       22.0       22.0       22.0       22.0       22.0       22.0       22.0       22.0       22.0       22.0        0.9        1.4        1.3        1.1        1.0        0.9        0.8        0.7        0.6        0.5        0.4        0.4      0.0       5.4      22.0      28.1      34.3    362.74
     4     3  1996    43     2     285.8     0.0     51.0    0.0   51.0    0.0      0.0      0.0   -9.90      2.2      2.2    100      3.6      3.6   100      5.8     5.8     100     18.4    0.54      0      0      0      0      0    45.3    45.3      0     0.63      3.6      3.6      3.6   100    17.7     1.102    -9.9    0.000    0.000      92        0.00    0.000    0.000     285.8    155.9    0.54   141.5     223.1     119.7     111.5      88.3      75.0      54.4    0.490     0.000     0.000     3.083     2.053    0.54     1.44    2.22      0   -9.90   -9.00       35.2       30.6       22.0       22.0       22.0       22.0       22.0       22.0       22.0       22.0       22.0       22.0        2.0        2.1        1.3        1.1        1.0        0.9        0.8        0.7        0.6        0.5        0.5        0.4      0.0       5.7      22.8      29.5      36.3    362.74
     5     3  1996    44     2     260.5     0.1      0.0    0.0    0.1    0.0     18.4      0.0   -9.90      2.6      2.2     86      4.8      4.8   100      7.3     7.0      95     19.2    0.55      0      0      0      0      0    48.9    48.9      0     0.67      4.8      4.8      4.8   100    17.7     1.220    -9.9    0.000    0.000      92        0.00    0.000    0.000     260.5    129.5    0.55   116.1     225.4     121.0     116.4      92.2      78.0      55.0    0.000     0.102     0.000     2.982     1.818    0.55     1.26    2.50      0   -9.90   -9.00       15.4       22.4       22.4       22.4       22.4       22.3       22.3       22.2       22.2       22.2       22.2       22.2        1.3        1.4        1.4        1.3        1.1        1.0        0.9        0.8        0.7        0.6        0.5        0.5      0.1       7.1      24.5      30.4      36.4    362.74
     6     3  1996    45     2     252.5     0.0      0.0    0.0    0.0    0.0      2.8      0.0   -9.90      2.2      0.7     31      4.6      4.6   100      6.8     5.3      78     19.0    0.56      0      0      0      0      0    52.1    52.1      0     0.70      4.6      4.6      4.6   100    17.7     1.344    -9.9    0.000    0.000      92        0.00    0.000    0.000     252.5    122.4    0.56   110.5     227.8     122.2     116.1      91.9      77.9      55.5    0.000     0.025     0.000     2.957     1.797    0.56     1.23    2.77      0   -9.90   -9.00       10.1       22.0       22.0       22.0       22.0       22.0       22.0       22.0       22.0       22.0       22.0       22.0        1.2        1.4        1.3        1.2        1.1        1.0        0.9        0.8        0.7        0.6        0.5        0.5      0.0       6.5      24.0      30.1      36.1    362.74
     7     3  1996    46     2     247.3     0.0      0.0    0.0    0.0    0.0      0.3      0.0   -9.90      2.0      0.3     13      4.6      4.6   100      6.6     4.9      74     18.6    0.56      4      0      0      0      0    54.8    54.8      0     0.73      4.6      4.6      4.6   100    17.7     1.473    -9.9    0.000    0.000      93        0.00    0.000    0.000     247.3    117.4    0.56   106.7     230.0     123.4     116.9      92.6      78.4      56.1    0.000     0.003     0.000     2.954     1.805    0.56     1.23    2.86      0   -9.90   -9.00        9.9       17.9       21.5       22.0       22.0       22.0       22.0       22.0       22.0       22.0       22.0       22.0        1.1        1.5        1.3        1.2        1.1        1.0        0.9        0.8        0.7        0.6        0.5        0.5      0.0       6.4      23.1      29.2      35.4    362.74
     8     3  1996    47     2     241.4     0.0      0.0    0.0    0.0    0.0      0.0      0.0   -9.90      2.2      0.2      9      5.6      5.6   100      7.8     5.8      75     18.6    0.57     15      0      0      0      0    56.9    56.9      0     0.75      5.6      5.6      5.6   100    17.7     1.604    -9.9    0.000    0.000      93        0.00    0.000    0.000     241.4    111.6    0.57   102.1     232.3     124.7     120.9      95.8      81.0      56.7    0.000     0.000     0.000     2.953     1.815    0.57     1.22    3.06      0   -9.90   -9.00        9.7       13.8       20.0       22.0       22.0       22.0       22.0       22.0       22.0       22.0       22.0       22.0        1.1        1.5        1.4        1.2        1.1        1.0        0.9        0.8        0.7        0.6        0.5        0.5      0.0       7.5      23.3      30.0      36.7    362.74
     9     3  1996    48     2     235.3     0.0      0.0    0.0    0.0    0.0      0.0      0.0   -9.90      2.2      0.1      6      6.0      6.0   100      8.2     6.2      75     19.1    0.57     35      0      0      0      0    58.3    58.3      0     0.76      6.0      6.0      6.0   100    17.7     1.739    -9.9    0.000    0.000      93        0.00    0.000    0.000     235.3    105.4    0.57    97.2     234.6     125.9     123.1      97.5      82.4      57.2    0.000     0.000     0.000     2.953     1.826    0.57     1.22    3.36      0   -9.90   -9.00        9.6       10.3       17.4       22.0       22.0       22.0       22.0       22.0       22.0       22.0       22.0       22.0        1.1        1.4        1.4        1.2        1.1        1.0        0.9        0.8        0.7        0.6        0.5        0.5      0.0       7.9      24.2      29.8      35.3    362.74
    10     3  1996    49     2     229.8     0.0      0.0    0.0    0.0    0.0      0.0      0.0   -9.90      1.9      0.1      4      5.5      5.4    99      7.4     5.5      75     18.1    0.58     56      1      0      0      0    59.2    59.2      0     0.77      5.5      5.4      5.4    99    17.7     1.873    -9.9    0.000    0.000      93        0.00    0.000    0.000     229.8     99.9    0.58    92.9     236.8     127.1     122.2      96.8      81.9      57.8    0.000     0.000     0.000     2.953     1.837    0.58     1.21    3.54      0   -9.90   -9.00        9.5        9.8       14.1       20.4       22.0       22.0       22.0       22.0       22.0       22.0       22.0       22.0        1.1        1.3        1.4        1.3        1.1        1.0        0.9        0.8        0.7        0.6        0.5        0.5      0.0       7.1      22.1      29.5      36.9    362.74
    11     3  1996    50     2     273.9     0.0     51.0    0.0   51.0    0.0      0.0      0.0   -9.90      1.7      1.7    100      5.2      5.2   100      6.9     6.9     100     18.6    0.58      0      0      0      0      0    61.1    61.1      0     0.78      5.2      5.2      5.2   100    17.7     2.012    -9.9    0.000    0.000      94        0.00    0.000    0.000     273.9    144.0    0.58   138.1     239.0     128.3     122.2      96.8      82.0      58.3    0.490     0.000     0.000     3.443     2.337    0.58     1.53    2.70      0   -9.90   -9.00       34.3       29.0       14.1       20.4       22.0       22.0       22.0       22.0       22.0       22.0       22.0       22.0        2.1        2.2        1.3        1.3        1.1        1.0        0.9        0.8        0.7        0.6        0.5        0.5      0.0       6.7      23.3      30.5      37.8    362.74
    12     3  1996    51     2     260.6     0.0      0.0    0.0    0.0    0.0      7.4      0.0   -9.90      1.4      1.4    100      4.3      4.3   100      5.8     5.8     100     19.1    0.59      0      0      0      0      0    62.8    62.8      0     0.80      4.3      4.3      4.3   100    17.7     2.153    -9.9    0.000    0.000      94        0.00    0.000    0.000     260.6    130.2    0.59   125.5     241.3     129.5     120.1      95.1      80.7      58.8    0.000     0.064     0.000     3.379     2.208    0.59     1.43    2.77      0   -9.90   -9.00       16.6       22.4       22.5       22.3       22.2       22.1       22.1       22.1       22.1       22.1       22.1       22.1        1.4        1.6        1.7        1.5        1.3        1.1        1.0        0.8        0.7        0.7        0.6        0.5      0.0       5.5      24.2      30.9      37.5    362.74
    13     3  1996    52     2     252.8     0.0      0.0    0.0    0.0    0.0      1.8      0.0   -9.90      1.4      1.4    100      4.7      4.7   100      6.1     6.1     100     18.6    0.59      0      0      0      0      0    64.3    64.3      0     0.81      4.7      4.7      4.7   100    17.7     2.297    -9.9    0.000    0.000      94        0.00    0.000    0.000     252.8    122.8    0.59   119.3     243.4     130.6     122.0      96.6      82.0      59.4    0.000     0.019     0.000     3.360     2.190    0.59     1.41    3.07      0   -9.90   -9.00       10.5       22.0       22.0       22.0       22.0       22.0       22.0       22.0       22.0       22.0       22.0       22.0        1.3        1.6        1.6        1.5        1.3        1.1        1.0        0.9        0.8        0.7        0.6        0.6      0.0       5.8      23.3      30.0      36.7    362.74
    14     3  1996    53     2     247.4     0.0      0.0    0.0    0.0    0.0      0.2      0.0   -9.90      1.2      1.0     82      4.2      4.2   100      5.4     5.2      96     18.7    0.60      0      0      0      0      0    65.6    65.6      0     0.82      4.2      4.2      4.2   100    17.7     2.442    -9.9    0.000    0.000      94        0.00    0.000    0.000     247.4    117.5    0.60   115.2     245.6     131.8     121.2      96.0      81.6      59.9    0.000     0.003     0.000     3.357     2.197    0.60     1.40    3.23      0   -9.90   -9.00        9.5       17.8       22.0       22.0       22.0       22.0       22.0       22.0       22.0       22.0       22.0       22.0        1.2        1.7        1.6        1.5        1.3        1.1        1.0        0.9        0.8        0.7        0.6        0.6      0.0       5.1      23.4      29.1      34.8    362.74
    15     3  1996    54     2     255.7    13.3      0.0    0.0   13.3    0.0      0.0      0.0   -9.90      1.1      1.1    100      3.9      3.9   100      5.0     5.0     100     18.4    0.60      0      0      0      0      0    66.7    66.7      0     0.83      3.9      3.9      3.9   100    17.7     2.589    -9.9    0.000    0.000      94        0.00    0.000    0.000     255.7    125.8    0.60   124.7     247.8     133.0     121.2      96.0      81.6      60.4    0.000     0.000     0.000     3.357     2.206    0.60     1.39    2.80      0   -9.90   -9.00       17.9       17.8       22.0       22.0       22.0       22.0       22.0       22.0       22.0       22.0       22.0       22.0        1.3        1.5        1.6        1.5        1.3        1.1        1.0        0.9        0.8        0.7        0.6        0.6     13.3       4.7      22.9      27.6      32.4    362.74
    16     3  1996    55     2     251.4     0.7      0.0    0.0    0.7    0.0      0.0      0.0   -9.90      1.1      1.0     99      4.0      4.0   100      5.0     5.0     100     18.2    0.61      0      0      0      0      0    67.7    67.7      0     0.84      4.0      4.0      4.0   100    17.7     2.737    -9.9    0.000    0.000      95        0.00    0.000    0.000     251.4    121.5    0.61   121.5     249.9     134.1     122.5      97.0      82.5      61.0    0.000     0.000     0.000     3.357     2.215    0.61     1.38    2.95      0   -9.90   -9.00       13.5       17.8       22.0       22.0       22.0       22.0       22.0       22.0       22.0       22.0       22.0       22.0        1.4        1.5        1.6        1.5        1.3        1.1        1.0        0.9        0.8        0.7        0.6        0.6      0.7       4.8      22.5      26.6      30.8    362.74
    17     3  1996    56     2     246.7     0.0      0.0    0.0    0.0    0.0      0.0      0.0   -9.90      1.1      0.4     38      4.3      4.3   100      5.4     4.7      88     19.1    0.61      1      0      0      0      0    68.6    68.6      0     0.85      4.3      4.3      4.3   100    17.7     2.887    -9.9    0.000    0.000      95        0.00    0.000    0.000     246.7    116.8    0.61   116.8     249.9     134.1     123.3      97.6      83.0      61.0    0.000     0.000     0.000     3.357     2.211    0.61     1.38    3.28      0   -9.90   -9.00        9.0       17.7       22.0       22.0       22.0       22.0       22.0       22.0       22.0       22.0       22.0       22.0        1.3        1.5        1.6        1.5        1.3        1.1        1.0        0.9        0.8        0.7        0.6        0.6      0.0       5.0      24.2      27.5      30.9    362.74
    18     3  1996    57     2     292.4     0.0     51.0    0.0   51.0    0.0      0.0      0.0   -9.90      1.0      1.0    100      4.4      4.4   100      5.3     5.3     100     18.4    0.61      0      0      0      0      0    69.4    69.4      0     0.85      4.4      4.4      4.4   100    17.7     3.038    -9.9    0.000    0.000      95        0.00    0.000    0.000     292.4    162.5    0.61   162.5     249.9     134.1     123.5      97.8      83.1      61.0    0.490     0.000     0.000     3.847     2.696    0.61     1.69    2.58      0   -9.90   -9.00       35.7       36.7       22.0       22.0       22.0       22.0       22.0       22.0       22.0       22.0       22.0       22.0        2.3        2.4        1.6        1.5        1.3        1.1        1.0        0.9        0.8        0.7        0.6        0.6      0.0       5.1      22.8      26.4      29.9    362.74
    19     3  1996    58     2     262.4     0.0      0.0    0.0    0.0    0.0     24.6      0.0   -9.90      1.0      1.0    100      4.5      4.5   100      5.4     5.4     100     18.7    0.61      0      0      0      0      0    70.1    70.1      0     0.86      4.5      4.5      4.5   100    17.7     3.190    -9.9    0.000    0.000      95        0.00    0.000    0.000     262.4    131.0    0.61   131.0     249.9     134.1     123.7      98.0      83.3      61.0    0.000     0.190     0.000     3.657     2.298    0.61     1.44    2.76      0   -9.90   -9.00       16.9       22.3       22.3       22.5       22.4       22.4       22.3       22.3       22.3       22.2       22.2       22.2        1.4        1.5        1.5        1.5        1.4        1.3        1.2        1.0        0.9        0.8        0.7        0.7      0.0       5.2      23.4      26.5      29.6    362.74
    20     3  1996    59     3     255.0     0.7      0.0    0.0    0.7    0.0      3.1      0.0   -9.90      0.9      0.9     99      4.1      4.1   100      5.0     5.0     100     17.9    0.61      0      0      0      0      0    70.7    70.7      0     0.86      4.1      4.1      4.1   100    17.7     3.343    -9.9    0.000    0.000      95        0.00    0.000    0.000     255.0    125.0    0.61   125.0     249.9     134.1     122.3      96.9      82.4      61.0    0.000     0.039     0.000     3.618     2.250    0.61     1.41    2.92      0   -9.90   -9.00       12.7       22.0       22.0       22.0       22.0       22.0       22.0       22.0       22.0       22.0       22.0       22.0        1.3        1.5        1.5        1.5        1.4        1.3        1.2        1.0        0.9        0.8        0.7        0.7      0.7       4.7      21.9      25.5      29.1    362.74
    21     3  1996    60     3     250.0     0.0      0.0    0.0    0.0    0.0      0.3      0.0   -9.90      0.9      0.4     40      4.3      4.3   100      5.2     4.7      89     18.4    0.61      0      0      0      0      0    71.2    71.2      0     0.87      4.3      4.3      4.3   100    17.7     3.496    -9.9    0.000    0.000      95        0.00    0.000    0.000     250.0    120.1    0.61   120.1     249.9     134.1     123.0      97.4      82.8      61.0    0.000     0.004     0.000     3.614     2.242    0.61     1.40    3.22      0   -9.90   -9.00        8.7       21.3       22.0       22.0       22.0       22.0       22.0       22.0       22.0       22.0       22.0       22.0        1.3        1.6        1.5        1.5        1.4        1.3        1.2        1.0        0.9        0.8        0.7        0.7      0.0       5.0      22.7      26.4      30.2    362.74
    22     3  1996    61     3     245.7     0.4      0.0    0.0    0.4    0.0      0.0      0.0   -9.90      0.8      0.5     56      4.3      4.3   100      5.1     4.8      93     18.4    0.61      1      0      0      0      0    71.6    71.6      0     0.87      4.3      4.3      4.3   100    17.7     3.650    -9.9    0.000    0.000      96        0.00    0.000    0.000     245.7    115.8    0.61   115.8     249.9     134.1     122.9      97.4      82.8      61.0    0.000     0.000     0.000     3.614     2.237    0.61     1.40    3.30      0   -9.90   -9.00        8.6       17.1       21.9       22.0       22.0       22.0       22.0       22.0       22.0       22.0       22.0       22.0        1.2        1.7        1.5        1.5        1.4        1.3        1.2        1.0        0.9        0.8        0.7        0.7      0.4       4.9      22.9      26.5      30.2    362.74
    23     3  1996    62     3     241.0     0.0      0.0    0.0    0.0    0.0      0.0      0.0   -9.90      0.9      0.1     13      4.5      4.5    99      5.4     4.6      86     18.2    0.61      7      1      0      0      0    72.0    72.0      0     0.87      4.5      4.5      4.5    99    17.7     3.804     1.5    0.057    1.145      96        0.02    0.000    0.000     241.0    111.1    0.61   111.1     249.9     134.1     123.7      98.0      83.2      61.0    0.000     0.000     0.000     3.613     2.234    0.61     1.40    3.50      0   -9.90   -9.00        8.5       12.9       21.6       22.0       22.0       22.0       22.0       22.0       22.0       22.0       22.0       22.0        1.1        1.6        1.6        1.5        1.4        1.3        1.2        1.0        0.9        0.8        0.7        0.7      0.0       5.2      22.5      26.4      30.3    362.74
    24     3  1996    63     3     236.0     0.0      0.0    0.0    0.0    0.0      0.0      0.0   -9.90      0.9      0.1      7      5.0      5.0    99      5.9     5.0      85     17.6    0.61     16      1      0      0      0    72.3    72.3      0     0.88      5.0      5.0      5.0    99    17.7     3.958     1.7    0.068    1.364      96        0.03    0.000    0.000     236.0    106.1    0.61   106.1     249.9     134.1     125.1      99.1      84.1      61.0    0.000     0.000     0.000     3.613     2.230    0.61     1.39    3.80      0   -9.90   -9.00        8.4        9.6       20.0       22.0       22.0       22.0       22.0       22.0       22.0       22.0       22.0       22.0        1.1        1.5        1.7        1.5        1.4        1.3        1.2        1.0        0.9        0.8        0.7        0.7      0.0       5.7      21.2      25.5      29.8    362.74
    25     3  1996    64     3     281.3     0.0     51.0    0.0   51.0    0.0      0.0      0.0   -9.90      0.9      0.9    100      4.8      4.8   100      5.7     5.7     100     17.2    0.61      0      0      0      0      0    72.6    72.6      0     0.88      4.8      4.8      4.8   100    17.7     4.113     2.0    0.081    1.622      96        0.03    0.000    0.000     281.3    151.4    0.61   151.4     249.9     134.1     124.4      98.5      83.7      61.0    0.490     0.000     0.000     4.103     2.715    0.61     1.70    2.81      0   -9.90   -9.00       35.3       28.0       20.0       22.0       22.0       22.0       22.0       22.0       22.0       22.0       22.0       22.0        2.2        2.3        1.6        1.5        1.4        1.3        1.2        1.0        0.9        0.8        0.8        0.7      0.0       5.5      20.5      25.1      29.7    362.74
    26     3  1996    65     3     261.7     0.0      0.0    0.0    0.0    0.0     14.2      0.0   -9.90      0.9      0.9    100      4.6      4.6   100      5.5     5.5     100     17.5    0.61      0      0      0      0      0    72.9    72.9      0     0.88      4.6      4.6      4.6   100    17.7     4.269     2.3    0.096    1.926      96        0.04    0.000    0.000     261.7    130.8    0.61   130.8     249.9     134.1     123.7      98.0      83.2      61.0    0.000     0.142     0.000     3.961     2.449    0.61     1.53    2.94      0   -9.90   -9.00       16.9       22.4       22.5       22.4       22.3       22.3       22.2       22.2       22.2       22.1       22.1       22.1        1.4        1.7        1.7        1.6        1.5        1.4        1.2        1.1        1.0        0.9        0.8        0.8      0.0       5.2      21.0      25.4      29.9    362.74
    27     3  1996    66     3     253.7     0.0      0.0    0.0    0.0    0.0      2.4      0.0   -9.90      0.9      0.9    100      4.7      4.7   100      5.5     5.5     100     18.2    0.61      0      0      0      0      0    73.2    73.2      0     0.88      4.7      4.7      4.7   100    17.7     4.425     2.6    0.114    2.282      96        0.04    0.000    0.000     253.7    123.7    0.61   123.7     249.9     134.1     123.9      98.1      83.4      61.0    0.000     0.036     0.000     3.925     2.403    0.61     1.50    3.18      0   -9.90   -9.00       11.4       22.0       22.0       22.0       22.0       22.0       22.0       22.0       22.0       22.0       22.0       22.0        1.4        1.7        1.7        1.6        1.5        1.3        1.2        1.1        1.0        0.9        0.8        0.8      0.0       5.3      22.5      26.2      30.0    362.74
    28     3  1996    67     3     248.1     0.0      0.0    0.0    0.0    0.0      0.3      0.0   -9.90      0.9      0.9    100      4.5      4.5   100      5.3     5.3     100     18.0    0.61      0      0      0      0      0    73.4    73.4      0     0.88      4.5      4.5      4.5   100    17.7     4.581     2.9    0.135    2.699      96        0.05    0.000    0.000     248.1    118.2    0.61   118.2     249.9     134.1     123.3      97.6      83.0      61.0    0.000     0.004     0.000     3.921     2.395    0.61     1.50    3.41      0   -9.90   -9.00        9.3       18.7       22.0       22.0       22.0       22.0       22.0       22.0       22.0       22.0       22.0       22.0        1.3        1.7        1.6        1.6        1.5        1.3        1.2        1.1        1.0        0.9        0.8        0.8      0.0       5.0      22.0      26.0      30.0    362.74
    29     3  1996    68     3     243.6     0.2      0.0    0.0    0.2    0.0      0.0      0.0   -9.90      0.8      0.3     36      4.4      4.3    99      5.2     4.6      89     18.4    0.61      3      1      0      0      0    73.6    73.6      0     0.89      4.4      4.3      4.3    99    17.7     4.737     3.4    0.159    3.184      96        0.06    0.000    0.000     243.6    113.7    0.61   113.7     249.9     134.1     122.9      97.4      82.8      61.0    0.000     0.000     0.000     3.920     2.391    0.61     1.49    3.58      0   -9.90   -9.00        9.2       14.5       21.9       22.0       22.0       22.0       22.0       22.0       22.0       22.0       22.0       22.0        1.2        1.8        1.7        1.6        1.5        1.3        1.2        1.1        1.0        0.9        0.8        0.8      0.2       4.9      22.8      26.2      29.6    362.74
    30     3  1996    69     3     239.4     0.4      0.0    0.0    0.4    0.0      0.0      0.0   -9.90      0.7      0.4     56      4.3      4.2    99      5.0     4.6      93     18.9    0.61     -9      1      0      0      0    74.1    74.1      0     0.89      4.3      4.2      4.2    99    17.7     4.894     3.8    0.188    3.750      97        0.07    0.000    0.000     239.4    109.5    0.61   109.5     249.9     134.1     122.5      97.1      82.5      61.0    0.000     0.000     0.000     3.920     2.388    0.61     1.49    3.85      0   -9.90   -9.00        9.2       10.5       21.6       22.0       22.0       22.0       22.0       22.0       22.0       22.0       22.0       22.0        1.2        1.7        1.8        1.6        1.5        1.3        1.2        1.1        1.0        0.9        0.8        0.8      0.4       4.8      23.8      26.6      29.5    362.74
    31     3  1996    70     3     234.6     0.0      0.0    0.0    0.0    0.0      0.0      0.0   -9.90      0.8      0.1      6      4.7      4.7    99      5.5     4.8      86     18.2    0.61     -9      1      0      0      0    74.2    74.2      0     0.89      4.7      4.7      4.7    99    17.7     5.050     4.4    0.220    4.407      97        0.08    0.000    0.000     234.6    104.7    0.61   104.7     249.9     134.1     124.0      98.3      83.5      61.0    0.000     0.000     0.000     3.920     2.384    0.61     1.49    4.03      0   -9.90   -9.00        9.2        9.5       18.2       21.8       22.0       22.0       22.0       22.0       22.0       22.0       22.0       22.0        1.2        1.5        1.9        1.6        1.5        1.3        1.2        1.1        1.0        0.9        0.8        0.8      0.0       5.3      22.4      26.2      30.1    362.74
     1     4  1996    71     3     280.1     0.0     51.0    0.0   51.0    0.0      0.0      0.0   -9.90      0.8      0.8    100      4.7      4.7   100      5.5     5.5     100     18.1    0.61     -9      0      0      0      0    74.3    74.3      0     0.89      4.7      4.7      4.7   100    17.7     5.208     5.0    0.258    5.169      97        0.09    0.000    0.000     280.1    150.3    0.61   150.3     249.9     134.1     123.8      98.1      83.3      61.0    0.490     0.000     0.000     4.410     2.870    0.61     1.79    3.03      0   -9.90   -9.00       35.5       28.7       18.2       21.8       22.0       22.0       22.0       22.0       22.0       22.0       22.0       22.0        2.3        2.4        1.7        1.6        1.5        1.3        1.2        1.1        1.0        0.9        0.9        0.8      0.0       5.2      22.3      26.2      30.2    362.74
     2     4  1996    72     3     261.6     0.0      0.0    0.0    0.0    0.0     13.1      0.0   -9.90      0.8      0.8    100      4.6      4.6   100      5.4     5.4     100     18.4    0.61     -9      0      0      0      0    74.4    74.4      0     0.89      4.6      4.6      4.6   100    17.7     5.366     5.6    0.302    6.049      97        0.11    0.000    0.000     261.6    130.8    0.61   130.8     249.9     134.1     123.6      97.9      83.2      61.0    0.000     0.153     0.000     4.257     2.600    0.61     1.63    3.12      0   -9.90   -9.00       17.0       22.4       22.4       22.4       22.3       22.2       22.2       22.2       22.2       22.1       22.1       22.1        1.4        1.7        1.9        1.8        1.6        1.5        1.3        1.2        1.1        1.0        0.9        0.9      0.0       5.2      22.8      26.5      30.2    362.74
     3     4  1996    73     3     253.8     0.0      0.0    0.0    0.0    0.0      2.3      0.0   -9.90      0.8      0.8    100      4.7      4.7   100      5.5     5.5     100     18.6    0.61     -9      0      0      0      0    74.5    74.5      0     0.89      4.7      4.7      4.7   100    17.7     5.523     6.4    0.353    7.061      97        0.12    0.000    0.000     253.8    123.8    0.61   123.8     249.9     134.1     123.9      98.1      83.4      61.0    0.000     0.039     0.000     4.218     2.551    0.61     1.60    3.36      0   -9.90   -9.00       11.5       22.0       22.0       22.0       22.0       22.0       22.0       22.0       22.0       22.0       22.0       22.0        1.4        1.7        1.8        1.7        1.6        1.4        1.3        1.2        1.1        1.0        0.9        0.9      0.0       5.3      23.2      27.0      30.9    362.74
     4     4  1996    74     3     248.1     0.0      0.0    0.0    0.0    0.0      0.3      0.0   -9.90      0.8      0.8    100      4.6      4.6   100      5.4     5.4     100     18.0    0.61     -9      0      0      0      0    74.5    74.5      0     0.89      4.6      4.6      4.6   100    17.7     5.681     7.2    0.411    8.221      97        0.14    0.000    0.000     248.1    118.2    0.61   118.2     249.9     134.1     123.7      97.9      83.2      61.0    0.000     0.005     0.000     4.213     2.543    0.61     1.59    3.61      0   -9.90   -9.00        9.1       18.9       22.0       22.0       22.0       22.0       22.0       22.0       22.0       22.0       22.0       22.0        1.3        1.8        1.8        1.7        1.6        1.4        1.3        1.2        1.1        1.0        0.9        0.9      0.0       5.2      22.0      26.6      31.1    362.74
     5     4  1996    75     3     242.0     0.0      0.0    0.0    0.0    0.0      0.0      0.0   -9.90      0.9      0.9    100      5.2      5.2    99      6.1     6.1      99     18.8    0.61     -9      1      0      0      0    74.6    74.6      0     0.89      5.2      5.2      5.2    99    17.7     5.837     8.2    0.477    9.543      97        0.16    0.000    0.000     242.0    112.1    0.61   112.1     249.9     134.1     125.6      99.4      84.4      61.0    0.000     0.000     0.000     4.213     2.539    0.61     1.59    3.88      0   -9.90   -9.00        8.3       14.8       21.0       22.0       22.0       22.0       22.0       22.0       22.0       22.0       22.0       22.0        1.2        1.8        1.8        1.7        1.6        1.4        1.3        1.2        1.1        1.0        0.9        0.9      0.0       5.9      23.5      28.4      33.2    362.74
     6     4  1996    76     3     235.2     0.0      0.0    0.0    0.0    0.0      0.0      0.0   -9.90      1.0      0.8     77      6.1      6.0    99      7.1     6.8      96     19.7    0.61     -9      1      0      0      0    74.7    74.7      0     0.89      6.1      6.0      6.0    99    17.7     5.993     9.2    0.552   11.046      97        0.18    0.000    0.000     235.2    105.3    0.61   105.3     249.9     134.1     128.1     101.5      85.9      61.0    0.000     0.000     0.000     4.213     2.535    0.61     1.58    4.31      0   -9.90   -9.00        7.5       10.8       18.9       22.0       22.0       22.0       22.0       22.0       22.0       22.0       22.0       22.0        1.2        1.8        1.8        1.7        1.6        1.4        1.3        1.2        1.1        1.0        0.9        0.9      0.0       6.8      25.4      29.8      34.2    362.74
     7     4  1996    77     3     230.0     0.0      0.0    0.0    0.0    0.0      0.0      0.0   -9.90      0.9      0.0      4      5.3      5.2    99      6.2     5.3      86     19.9    0.61     -9      1      0      0      0    74.7    74.7      0     0.89      5.3      5.2      5.2    99    17.7     6.149    10.4    0.637   12.745      97        0.20    0.000    0.000     230.0    100.1    0.61   100.1     249.9     134.1     125.7      99.6      84.5      61.0    0.000     0.000     0.000     4.213     2.531    0.61     1.58    4.60      0   -9.90   -9.00        7.5        9.4       15.5       21.6       22.0       22.0       22.0       22.0       22.0       22.0       22.0       22.0        1.2        1.7        1.9        1.7        1.6        1.4        1.3        1.2        1.1        1.0        0.9        0.9      0.0       5.9      25.7      30.5      35.2    362.74
     8     4  1996    78     3     274.5     0.0     51.0    0.0   51.0    0.0      0.0      0.0   -9.90      0.9      0.9    100      5.6      5.6   100      6.5     6.5     100     19.9    0.61     -9      0      0      0      0    74.7    74.7      0     0.89      5.6      5.6      5.6   100    17.7     6.306    11.6    0.733   14.661      97        0.23    0.000    0.000     274.5    144.6    0.61   144.6     249.9     134.1     126.6     100.2      85.0      61.0    0.490     0.000     0.000     4.702     3.017    0.61     1.89    3.36      0   -9.90   -9.00       35.1       26.3       15.5       21.6       22.0       22.0       22.0       22.0       22.0       22.0       22.0       22.0        2.3        2.5        1.7        1.8        1.6        1.4        1.3        1.2        1.1        1.0        0.9        0.9      0.0       6.2      25.7      30.8      35.9    362.74
     9     4  1996    79     3     259.9     0.0      0.0    0.0    0.0    0.0      8.1      0.0   -9.90      0.9      0.9    100      5.6      5.6   100      6.5     6.5     100     20.1    0.61     -9      0      0      0      0    74.8    74.8      0     0.89      5.6      5.6      5.6   100    17.7     6.463    12.9    0.836   16.729      97        0.26    0.000    0.000     259.9    129.4    0.61   129.4     249.9     134.1     126.8     100.4      85.1      61.0    0.000     0.119     0.000     4.583     2.810    0.61     1.76    3.40      0   -9.90   -9.00       16.5       21.8       22.4       22.3       22.2       22.2       22.1       22.1       22.1       22.1       22.1       22.1        1.5        1.9        2.1        1.9        1.7        1.5        1.4        1.3        1.2        1.1        1.0        0.9      0.0       6.3      26.2      31.1      36.0    362.74
    10     4  1996    80     3     251.6     0.0      0.0    0.0    0.0    0.0      1.5      0.0   -9.90      1.0      1.0    100      5.8      5.8   100      6.8     6.8     100     20.3    0.61     -9      0      0      0      0    74.8    74.8      0     0.89      5.8      5.8      5.8   100    17.7     6.620    14.3    0.944   18.879      97        0.28    0.000    0.000     251.6    121.7    0.61   121.7     249.9     134.1     127.5     101.0      85.5      61.0    0.000     0.027     0.000     4.556     2.775    0.61     1.74    3.74      0   -9.90   -9.00       10.7       20.8       22.0       22.0       22.0       22.0       22.0       22.0       22.0       22.0       22.0       22.0        1.5        1.9        2.0        1.9        1.7        1.5        1.4        1.3        1.2        1.1        1.0        1.0      0.0       6.6      26.6      30.8      35.0    362.74
    11     4  1996    81     3     243.8     0.0      0.0    0.0    0.0    0.0      0.2      0.0   -9.90      1.1      1.1    100      6.6      6.5    99      7.7     7.6      99     20.4    0.61     -9      1      0      0      0    74.8    74.8      0     0.89      6.6      6.5      6.5    99    17.7     6.776    15.6    1.055   21.108      97        0.31    0.000    0.000     243.8    113.9    0.61   113.9     249.9     134.1     129.8     102.8      87.0      61.0    0.000     0.003     0.000     4.552     2.768    0.61     1.73    4.04      0   -9.90   -9.00        9.6       16.6       19.6       22.0       22.0       22.0       22.0       22.0       22.0       22.0       22.0       22.0        1.4        2.0        2.0        1.9        1.7        1.5        1.4        1.3        1.2        1.1        1.0        1.0      0.0       7.4      26.7      31.2      35.8    362.74
    12     4  1996    82     3     237.3     0.0      0.0    0.0    0.0    0.0      0.0      0.0   -9.90      1.0      1.0    100      5.6      5.5    99      6.6     6.5      99     20.6    0.61     -9      1      0      0      0    74.8    74.8      0     0.89      5.6      5.5      5.5    99    17.7     6.931    16.9    1.171   23.418      97        0.34    0.000    0.000     237.3    107.4    0.61   107.4     249.9     134.1     126.6     100.3      85.0      61.0    0.000     0.000     0.000     4.552     2.764    0.61     1.73    4.45      0   -9.90   -9.00        8.6       12.4       18.3       22.0       22.0       22.0       22.0       22.0       22.0       22.0       22.0       22.0        1.3        2.0        2.0        1.9        1.7        1.5        1.4        1.3        1.2        1.1        1.0        1.0      0.0       6.3      27.3      31.3      35.3    362.74
    13     4  1996    83     3     231.7     0.0      0.0    0.0    0.0    0.0      0.0      0.0   -9.90      1.0      0.1     14      5.5      5.4    99      6.5     5.6      86     20.4    0.61     -9      1      0      0      0    74.9    74.9      0     0.88      5.5      5.4      5.4    99    17.7     7.086    18.2    1.290   25.809      97        0.36    0.000    0.000     231.7    101.8    0.61   101.8     249.9     134.1     126.4     100.1      84.9      61.0    0.000     0.000     0.000     4.552     2.759    0.61     1.72    4.88      0   -9.90   -9.00        8.4        9.4       15.9       22.0       22.0       22.0       22.0       22.0       22.0       22.0       22.0       22.0        1.3        1.9        2.0        1.9        1.7        1.5        1.4        1.3        1.2        1.1        1.0        1.0      0.0       6.2      26.8      31.0      35.3    362.74
    14     4  1996    84     3     226.3     0.0      0.0    0.0    0.0    0.0      0.0      0.0   -9.90      0.9      0.0      4      5.5      5.4    99      6.4     5.4      86     19.6    0.61     -9      1      0      0      0    74.9    74.9      0     0.88      5.5      5.4      5.4    99    17.7     7.241    19.5    1.414   28.272      97        0.39    0.000    0.000     226.3     96.4    0.61    96.4     249.9     134.1     126.4     100.1      84.9      61.0    0.000     0.000     0.000     4.552     2.755    0.61     1.72    5.13      0   -9.90   -9.00        8.4        9.4       12.5       20.0       22.0       22.0       22.0       22.0       22.0       22.0       22.0       22.0        1.4        1.7        2.0        2.0        1.7        1.6        1.4        1.3        1.2        1.1        1.0        1.0      0.0       6.2      25.3      30.3      35.3    362.74
    15     4  1996    85     3     271.0     0.0     51.0    0.0   51.0    0.0      0.0      0.0   -9.90      0.9      0.9    100      5.4      5.4   100      6.3     6.3     100     19.1    0.61     -9      0      0      0      0    74.9    74.9      0     0.88      5.4      5.4      5.4   100    17.7     7.397    20.8    1.542   30.830      98        0.42    0.000    0.000     271.0    141.1    0.61   141.1     249.9     134.1     126.2      99.9      84.7      61.0    0.490     0.000     0.000     5.042     3.240    0.61     2.03    3.81      0   -9.90   -9.00       35.1       27.4       12.5       20.0       22.0       22.0       22.0       22.0       22.0       22.0       22.0       22.0        2.4        2.7        1.8        2.0        1.7        1.6        1.4        1.3        1.2        1.1        1.0        1.0      0.0       6.1      24.2      29.2      34.2    362.74
    16     4  1996    86     3     259.9     0.0      0.0    0.0    0.0    0.0      4.9      0.0   -9.90      0.9      0.9    100      5.2      5.2   100      6.1     6.1     100     19.3    0.61     -9      0      0      0      0    74.9    74.9      0     0.88      5.2      5.2      5.2   100    17.7     7.553    22.2    1.674   33.470      98        0.45    0.000    0.000     259.9    129.7    0.61   129.7     249.9     134.1     125.7      99.6      84.5      61.0    0.000     0.086     0.000     4.955     3.086    0.61     1.93    3.72      0   -9.90   -9.00       16.5       22.2       22.4       22.2       22.1       22.1       22.1       22.1       22.1       22.1       22.0       22.0        1.5        2.0        2.3        2.2        1.9        1.7        1.5        1.3        1.2        1.1        1.1        1.0      0.0       5.9      24.6      29.4      34.2    362.74
    17     4  1996    87     3     250.8     0.0      0.0    0.0    0.0    0.0      1.2      0.0   -9.90      1.1      1.1    100      6.8      6.8    99      7.9     7.9      99     20.2    0.61     -9      1      0      0      0    74.9    74.9      0     0.88      6.8      6.8      6.8    99    17.7     7.708    23.5    1.809   36.187      98        0.48    0.000    0.000     250.8    120.8    0.61   120.8     249.9     134.1     130.7     103.5      87.5      61.0    0.000     0.025     0.000     4.930     3.049    0.61     1.91    4.11      0   -9.90   -9.00       10.6       20.0       22.0       22.0       22.0       22.0       22.0       22.0       22.0       22.0       22.0       22.0        1.5        2.0        2.2        2.2        1.9        1.7        1.5        1.4        1.2        1.1        1.1        1.0      0.0       7.7      26.4      31.8      37.3    362.74
[...]
    19     4  1996    89     3     235.4     0.0      0.0    0.0    0.0    0.0      0.0      0.0   -9.90      1.1      0.9     86      6.0      5.9    99      7.0     6.8      97     20.1    0.61     -9      1      0      0      0    74.9    74.9      0     0.88      6.0      5.9      5.9    99    17.7     8.017    26.1    2.093   41.861      98        0.53    0.000    0.000     235.4    105.5    0.61   105.5     249.9     134.1     128.0     101.4      85.8      61.0    0.000     0.000     0.000     4.927     3.034    0.61     1.90    4.97      0   -9.90   -9.00        8.5       11.7       17.2       22.0       22.0       22.0       22.0       22.0       22.0       22.0       22.0       22.0        1.4        2.1        2.2        2.2        1.9        1.7        1.5        1.4        1.2        1.1        1.1        1.0      0.0       6.8      26.3      30.6      35.0    362.74
    20     4  1996    90     3     230.3     0.0      0.0    0.0    0.0    0.0      0.0      0.0   -9.90      0.9      0.1      6      5.1      5.0    99      6.0     5.1      85     19.1    0.61     -9      1      0      0      0    74.9    74.9      0     0.88      5.1      5.0      5.0    99    17.7     8.171    27.4    2.241   44.816      98        0.56    0.000    0.000     230.3    100.4    0.61   100.4     249.9     134.1     125.3      99.2      84.2      61.0    0.000     0.000     0.000     4.927     3.028    0.61     1.89    5.40      0   -9.90   -9.00        8.4        9.2       14.6       22.0       22.0       22.0       22.0       22.0       22.0       22.0       22.0       22.0        1.4        2.0        2.2        2.2        1.9        1.7        1.5        1.4        1.2        1.2        1.1        1.0      0.0       5.8      24.3      28.4      32.4    362.74
    21     4  1996    91     3     225.5     0.0      0.0    0.0    0.0    0.0      0.0      0.0   -9.90      0.8      0.0      4      4.8      4.8    99      5.6     4.8      85     18.9    0.61     -9      1      0      0      0    75.0    75.0      0     0.88      4.8      4.8      4.8    99    17.7     8.324    28.7    2.392   47.841      98        0.59    0.000    0.000     225.5     95.6    0.61    95.6     249.9     134.1     124.5      98.6      83.7      61.0    0.000     0.000     0.000     4.927     3.022    0.61     1.89    5.70      0   -9.90   -9.00        8.4        9.2       11.4       20.5       22.0       22.0       22.0       22.0       22.0       22.0       22.0       22.0        1.5        1.8        2.2        2.3        1.9        1.7        1.5        1.4        1.3        1.2        1.1        1.0      0.0       5.5      23.9      27.8      31.7    362.74
    22     4  1996    92     3     270.8     0.0     51.0    0.0   51.0    0.0      0.0      0.0   -9.90      0.8      0.8    100      4.9      4.9   100      5.7     5.7     100     19.2    0.61     -9      0      0      1      0    75.0    75.0      0     0.88      4.9      4.9      4.9   100    17.7     8.479    30.1    2.548   50.966      98        0.62    0.000    0.000     270.8    140.9    0.61   140.9     249.9     134.1     124.8      98.8      83.9      61.0    0.490     0.000     0.000     5.416     3.506    0.61     2.19    4.20      1   -9.90   -9.00       35.3       27.6       11.4       20.5       22.0       22.0       22.0       22.0       22.0       22.0       22.0       22.0        2.5        2.8        1.8        2.4        2.0        1.7        1.5        1.4        1.3        1.2        1.1        1.0      0.0       5.6      24.5      28.1      31.7    362.74
    23     4  1996    93     3     260.3     0.0      0.0    0.0    0.0    0.0      4.8      0.0   -9.90      0.8      0.8    100      4.9      4.9   100      5.7     5.7     100     19.3    0.61     -9      0      0      1      0    75.0    75.0      0     0.88      4.9      4.9      4.9   100    17.7     8.634    31.4    2.709   54.171      98        0.65    0.000    0.000     260.3    130.1    0.61   130.1     249.9     134.1     124.6      98.7      83.8      61.0    0.000     0.089     0.000     5.327     3.340    0.61     2.09    4.01      1   -9.90   -9.00       16.7       22.4       22.4       22.2       22.1       22.1       22.1       22.1       22.1       22.1       22.0       22.0        1.6        2.1        2.5        2.5        2.1        1.8        1.6        1.4        1.3        1.2        1.1        1.1      0.0       5.5      24.6      28.5      32.4    362.74
    24     4  1996    94     3     253.3     0.0      0.0    0.0    0.0    0.0      1.4      0.0   -9.90      0.8      0.8    100      4.8      4.8    99      5.6     5.6      99     19.6    0.61     -9      1      0      0      0    75.0    75.0      0     0.87      4.8      4.8      4.8    99    17.7     8.788    32.7    2.873   57.451      98        0.68    0.000    0.000     253.3    123.4    0.61   123.4     249.9     134.1     124.6      98.7      83.8      61.0    0.000     0.029     0.000     5.298     3.292    0.61     2.06    4.30      0   -9.90   -9.00       11.1       22.0       22.0       22.0       22.0       22.0       22.0       22.0       22.0       22.0       22.0       22.0        1.6        2.1        2.3        2.4        2.1        1.8        1.6        1.5        1.3        1.2        1.1        1.1      0.0       5.5      25.2      29.0      32.8    362.74
    25     4  1996    95     3     247.5     0.0      0.0    0.0    0.0    0.0      0.2      0.0   -9.90      0.8      0.8    100      4.8      4.8    99      5.6     5.6      99     20.0    0.61     -9      1      0      0      0    75.0    75.0      0     0.87      4.8      4.8      4.8    99    17.7     8.941    34.0    3.040   60.809      98        0.71    0.000    0.000     247.5    117.6    0.61   117.6     249.9     134.1     124.6      98.7      83.8      61.0    0.000     0.005     0.000     5.293     3.280    0.61     2.05    4.56      0   -9.90   -9.00        9.6       17.9       22.0       22.0       22.0       22.0       22.0       22.0       22.0       22.0       22.0       22.0        1.5        2.2        2.3        2.4        2.1        1.9        1.6        1.5        1.3        1.2        1.1        1.1      0.0       5.5      26.0      28.8      31.5    362.74
    26     4  1996    96     3     241.9     0.0      0.0    0.0    0.0    0.0      0.0      0.0   -9.90      0.8      0.8    100      4.8      4.8    99      5.6     5.6      99     19.6    0.61     -9      1     -9      0      0    74.7    74.7      0     0.87      4.8      4.8      4.8    99    17.7     9.093    35.3    3.212   64.239      98        0.74    0.000    0.000     241.9    112.0    0.61   112.0     249.9     134.1     124.6      98.7      83.8      61.0    0.000     0.000     0.000     5.293     3.273    0.61     2.05    4.90      0   -9.90   -9.00        8.8       13.7       21.4       22.0       22.0       22.0       22.0       22.0       22.0       22.0       22.0       22.0        1.4        2.2        2.4        2.3        2.1        1.9        1.6        1.5        1.3        1.2        1.1        1.1      0.0       5.5      25.3      28.6      32.0    362.74
    27     4  1996    97     3     236.4     0.0      0.0    0.0    0.0    0.0      0.0      0.0   -9.90      0.8      0.7     89      4.8      4.8    99      5.6     5.5      98     19.8    0.61     -9      1     -9      0      0    74.3    74.3      0     0.86      4.8      4.8      4.8    99    17.7     9.244    36.6    3.387   67.738      98        0.77    0.000    0.000     236.4    106.5    0.61   106.5     249.9     134.1     124.8      98.8      83.9      61.0    0.000     0.000     0.000     5.293     3.265    0.61     2.04    5.40      0   -9.90   -9.00        8.0       10.0       20.4       22.0       22.0       22.0       22.0       22.0       22.0       22.0       22.0       22.0        1.4        2.1        2.5        2.3        2.1        1.9        1.6        1.5        1.3        1.2        1.1        1.1      0.0       5.6      25.6      28.8      32.0    362.74
    28     4  1996    98     3     231.8     0.4      0.0    0.0    0.4    0.0      0.0      0.0   -9.90      0.8      0.4     46      4.6      4.6    99      5.5     5.0      91     20.1    0.61     -9      1     -9      0      0    74.0    74.0      0     0.85      4.6      4.6      4.6    99    17.7     9.393    38.0    3.565   71.304      98        0.80    0.000    0.000     231.8    101.9    0.61   101.9     249.9     134.1     124.4      98.5      83.7      61.0    0.000     0.000     0.000     5.293     3.258    0.61     2.04    5.55      0   -9.90   -9.00        8.1       10.0       17.0       20.8       22.0       22.0       22.0       22.0       22.0       22.0       22.0       22.0        1.5        1.9        2.6        2.3        2.1        1.9        1.6        1.5        1.3        1.2        1.1        1.1      0.4       5.5      26.2      28.9      31.7    362.74
    29     4  1996    99     3     277.8     0.5     51.0    0.0   51.5    0.0      0.0      0.0   -9.90      0.8      0.8    100      4.6      4.6   100      5.5     5.5     100     19.2    0.61     -9      0     -9      3      0    73.6    73.6      0     0.84      4.6      4.6      4.6   100    17.7     9.542    39.3    3.748   74.951      98        0.84    0.000    0.000     277.8    148.0    0.61   148.0     249.9     134.1     124.5      98.6      83.8      61.0    0.490     0.000     0.000     5.782     3.741    0.61     2.34    4.12      3   -9.90   -9.00       35.5       28.5       17.0       20.8       22.0       22.0       22.0       22.0       22.0       22.0       22.0       22.0        2.5        2.9        2.3        2.4        2.1        1.9        1.7        1.5        1.3        1.2        1.1        1.1      0.5       5.5      24.5      28.1      31.6    362.74
    30     4  1996   100     3     263.8     2.1      0.0    0.0    2.1    0.0     11.1      0.0   -9.90      0.8      0.8    100      4.1      4.1   100      5.0     5.0     100     19.4    0.61     -9      0     -9      1      0    73.1    73.1      0     0.83      4.1      4.1      4.1   100    17.7     9.690    40.6    3.933   78.663      98        0.87    0.000    0.000     263.8    133.1    0.61   133.1     249.9     134.1     123.0      97.4      82.8      61.0    0.000     0.184     0.000     5.598     3.397    0.61     2.12    3.98      1   -9.90   -9.00       19.3       22.4       22.4       22.3       22.3       22.2       22.2       22.2       22.2       22.1       22.1       22.1        1.6        2.0        2.4        2.4        2.3        2.0        1.8        1.6        1.4        1.3        1.2        1.2      2.1       5.0      24.8      28.2      31.7    362.74
     1     5  1996   101     4     256.9     0.7      0.0    0.0    0.7    0.0      2.2      0.0   -9.90      1.0      1.0    100      4.5      4.5    99      5.5     5.4      99     19.6    0.61     -9      1     -9      1      0    72.7    72.7      0     0.82      4.5      4.5      4.5    99    17.7     9.835    41.9    4.122   82.431      98        0.90    0.000    0.000     256.9    126.8    0.61   126.8     249.9     134.1     124.4      98.6      83.7      61.0    0.000     0.050     0.000     5.549     3.331    0.61     2.08    4.14      1   -9.90   -9.00       14.6       22.0       22.0       22.0       22.0       22.0       22.0       22.0       22.0       22.0       22.0       22.0        1.7        2.0        2.3        2.3        2.2        2.0        1.8        1.6        1.5        1.3        1.2        1.2      0.7       5.5      25.3      28.5      31.6    362.74
     2     5  1996   102     4     251.5     0.0      0.0    0.0    0.0    0.0      0.3      0.0   -9.90      1.0      0.4     41      4.7      4.7    99      5.7     5.1      89     19.9    0.61     -9      1     -9      1      0    72.2    72.2      0     0.81      4.7      4.7      4.7    99    17.7     9.978    43.2    4.313   86.259      98        0.93    0.000    0.000     251.5    121.6    0.61   121.6     249.9     134.1     125.2      99.2      84.2      61.0    0.000     0.006     0.000     5.542     3.318    0.61     2.07    4.50      1   -9.90   -9.00        9.6       21.9       22.0       22.0       22.0       22.0       22.0       22.0       22.0       22.0       22.0       22.0        1.6        2.1        2.2        2.3        2.2        2.0        1.8        1.6        1.5        1.3        1.2        1.2      0.0       5.8      25.7      28.8      31.9    362.74
     3     5  1996   103     4     247.1     0.5      0.0    0.0    0.5    0.0      0.0      0.0   -9.90      1.0      0.7     64      4.3      4.2    99      5.3     4.9      92     19.4    0.61     -9      1     -9      1      0    70.7    70.7      0     0.79      4.3      4.2      4.2    99    17.7    10.115    44.5    4.506   90.115      98        0.96    0.000    0.000     247.1    117.2    0.61   117.2     249.9     134.1     124.3      98.4      83.6      61.0    0.000     0.001     0.000     5.542     3.311    0.61     2.07    4.63      1   -9.90   -9.00        9.5       17.7       22.0       22.0       22.0       22.0       22.0       22.0       22.0       22.0       22.0       22.0        1.5        2.2        2.2        2.3        2.2        2.0        1.8        1.6        1.5        1.3        1.2        1.2      0.5       5.4      24.9      28.3      31.7    362.74
     4     5  1996   104     4     242.8     0.4      0.0    0.0    0.4    0.0      0.0      0.0   -9.90      1.1      0.5     49      4.3      4.3    99      5.4     4.8      89     19.6    0.61     -9      1     -9      1      0    70.1    70.1      0     0.78      4.3      4.3      4.3    99    17.7    10.251    45.9    4.701   94.025      98        0.99    0.000    0.000     242.8    112.9    0.61   112.9     249.9     134.1     124.6      98.7      83.8      61.0    0.000     0.000     0.000     5.542     3.304    0.61     2.07    4.87      1   -9.90   -9.00        9.3       13.5       21.9       22.0       22.0       22.0       22.0       22.0       22.0       22.0       22.0       22.0        1.5        2.2        2.3        2.3        2.2        2.0        1.8        1.6        1.5        1.3        1.2        1.2      0.4       5.5      25.1      28.8      32.4    362.74
     5     5  1996   105     4     238.4     0.1      0.0    0.0    0.1    0.0      0.0      0.0   -9.90      1.1      0.2     18      4.3      4.3    99      5.4     4.5      83     19.6    0.61     -9      1     -9      0      0    69.5    69.5      0     0.76      4.3      4.3      4.3    99    17.7    10.385    47.2    4.899   97.987      98        1.02    0.000    0.000     238.4    108.5    0.61   108.5     249.9     134.1     124.9      98.9      84.0      61.0    0.000     0.000     0.000     5.542     3.298    0.61     2.06    5.25      0   -9.90   -9.00        9.2        9.9       21.2       22.0       22.0       22.0       22.0       22.0       22.0       22.0       22.0       22.0        1.5        2.1        2.4        2.3        2.2        2.0        1.8        1.6        1.5        1.3        1.2        1.2      0.1       5.6      25.3      28.6      32.0    362.74
     6     5  1996    -9     0     244.7     8.2      0.0    0.0    8.2    0.0      0.0      0.0   -9.90      1.9      1.9    100      0.0      0.0   100      1.9     1.9     100     19.8    0.61     -9     -9     -9      0     -9     0.0     0.0      0    -9.00      0.0      0.0      0.0   100    17.7    10.385    48.5    5.036  100.722      98        1.05    0.000    0.000     244.7    114.8    0.61   114.8     249.9     134.1     124.9      93.6      84.0      61.0    0.000     0.000     0.000     5.542     3.291    0.61     2.06    4.71      0   -9.90   -9.00       15.5        9.9       21.2       22.0       22.0       22.0       22.0       22.0       22.0       22.0       22.0       22.0        1.7        1.7        2.5        2.3        2.2        2.0        1.8        1.6        1.5        1.3        1.3        1.2      8.2       3.2      25.5      27.8      30.1    362.74
     7     5  1996    -9     0     243.3     0.5      0.0    0.0    0.5    0.0      0.0      0.0   -9.90      5.9      1.8     31      0.0      0.0   100      5.9     1.8      31     20.9    0.61     -9     -9     -9      0     -9     0.0     0.0      0    -9.00      0.0      0.0      0.0   100    17.7    10.385    49.0    5.087  101.741      98        1.06    0.000    0.000     243.3    113.4    0.61   113.4     249.9     134.1     124.9      98.2      84.0      61.0    0.000     0.000     0.000     5.542     3.285    0.61     2.05    4.72      0   -9.90   -9.00       14.2        9.9       21.2       22.0       22.0       22.0       22.0       22.0       22.0       22.0       22.0       22.0        1.8        1.5        2.6        2.3        2.2        2.0        1.8        1.6        1.5        1.4        1.3        1.2      0.5       5.3      27.7      30.0      32.4    362.74
     8     5  1996    -9     0     242.2     0.0      0.0    0.0    0.0    0.0      0.0      0.0   -9.90      6.0      1.1     19      0.0      0.0   100      6.0     1.1      19     20.9    0.61     -9     -9     -9      0     -9     0.0     0.0      0    -9.00      0.0      0.0      0.0   100    17.7    10.385    49.0    5.087  101.741      98        1.06    0.000    0.000     242.2    112.3    0.61   112.3     249.9     134.1     124.9      98.6      84.0      61.0    0.000     0.000     0.000     5.542     3.279    0.61     2.05    4.76      0   -9.90   -9.00       13.0        9.9       21.2       22.0       22.0       22.0       22.0       22.0       22.0       22.0       22.0       22.0        1.8        1.4        2.6        2.3        2.2        2.0        1.8        1.6        1.5        1.4        1.3        1.2      0.0       5.5      27.8      30.5      33.1    362.74
     9     5  1996    -9     0     241.3     0.0      0.0    0.0    0.0    0.0      0.0      0.0   -9.90      6.1      0.9     15      0.0      0.0   100      6.1     0.9      15     20.7    0.61     -9     -9     -9      0     -9     0.0     0.0      0    -9.00      0.0      0.0      0.0   100    17.7    10.385    49.0    5.087  101.741      98        1.06    0.000    0.000     241.3    111.4    0.61   111.4     249.9     134.1     124.9      98.7      84.0      61.0    0.000     0.000     0.000     5.542     3.273    0.61     2.05    4.80      0   -9.90   -9.00       12.2        9.9       21.2       22.0       22.0       22.0       22.0       22.0       22.0       22.0       22.0       22.0        1.8        1.4        2.6        2.4        2.2        2.0        1.8        1.6        1.5        1.4        1.3        1.2      0.0       5.5      27.4      30.8      34.1    362.74
    10     5  1996    -9     0     240.6     0.0      0.0    0.0    0.0    0.0      0.0      0.0   -9.90      6.3      0.8     12      0.0      0.0   100      6.3     0.8      12     20.2    0.61     -9     -9     -9      0     -9     0.0     0.0      0    -9.00      0.0      0.0      0.0   100    17.7    10.385    49.0    5.087  101.741      98        1.06    0.000    0.000     240.6    110.7    0.61   110.7     249.9     134.1     124.9      99.2      84.0      61.0    0.000     0.000     0.000     5.542     3.267    0.61     2.04    4.85      0   -9.90   -9.00       11.4        9.9       21.2       22.0       22.0       22.0       22.0       22.0       22.0       22.0       22.0       22.0        1.8        1.4        2.6        2.4        2.2        2.0        1.8        1.7        1.5        1.4        1.3        1.2      0.0       5.8      26.4      30.5      34.6    362.74
