AquaCrop 7.2 (August 2024) - Output created on (date) : 27-12-2024   at (time) : 21:00:28

    RunNr     Day1   Month1    Year1     Rain      ETo       GD     CO2      Irri   Infilt   Runoff    Drain   Upflow        E     E/Ex       Tr      TrW   Tr/Trx    SaltIn   SaltOut    SaltUp  SaltProf     Cycle   SaltStr  FertStr  WeedStr  TempStr   ExpStr   StoStr  BioMass  Brelative   HI    Y(dry)  Y(fresh)    WPet      Bin     Bout     DayN   MonthN    YearN
                                           mm       mm  degC.day    ppm        mm       mm       mm       mm       mm       mm        %       mm       mm        %    ton/ha    ton/ha    ton/ha    ton/ha      days       %        %        %        %        %        %    ton/ha        %       %    ton/ha   ton/ha    kg/m3   ton/ha   ton/ha
      Day        9        1     1997      0.7      3.3     18.0   363.88      0.0      0.7      0.0      0.0      0.0      3.1       85      0.0      0.0       -9     0.000     0.000     0.000     0.000       -9        0        0        0        0        0        0     0.000       -9     -9.9       -9       -9       -9       -9    0.000    0.000        9        1     1997  tom.PRO
      Day       10        1     1997      0.8      4.3     18.4   363.88      0.0      0.8      0.0      0.0      0.0      3.8       80      0.0      0.0       -9     0.000     0.000     0.000     0.000       -9        0        0        0        0        0        0     0.000       -9     -9.9       -9       -9       -9       -9    0.000    0.000       10        1     1997  tom.PRO
      Day       11        1     1997      0.0      4.7     18.4   363.88      1.0      1.0      0.0      0.0      0.0      3.0       80      0.0      0.0       -9     0.010     0.000     0.000     0.010       -9        0        0        0        0        0        0     0.000       -9     -9.9       -9       -9       -9       -9    0.000    0.000       11        1     1997  tom.PRO
      Day       12        1     1997      0.0      4.7     17.4   363.88      0.0      0.0      0.0      0.0      0.0      1.6       51      0.0      0.0       -9     0.000     0.000     0.000     0.010       -9        0        0        0        0        0        0     0.000       -9     -9.9       -9       -9       -9       -9    0.000    0.000       12        1     1997  tom.PRO
      Day       13        1     1997      0.0      5.4     17.6   363.88      0.0      0.0      0.0      0.0      0.0      0.7       41      0.0      0.0       -9     0.000     0.000     0.000     0.010       -9        0        0        0        0        0        0     0.000       -9     -9.9       -9       -9       -9       -9    0.000    0.000       13        1     1997  tom.PRO
      Day       14        1     1997      0.0      5.6     17.0   363.88      1.0      1.0      0.0      0.0      0.0      1.2       64      0.0      0.0       -9     0.010     0.000     0.000     0.019       -9        0        0        0        0        0        0     0.000       -9     -9.9       -9       -9       -9       -9    0.000    0.000       14        1     1997  tom.PRO
      Day       15        1     1997      0.0      4.4     15.9   363.88      0.0      0.0      0.0      0.0      0.0      0.7       48      0.0      0.0       -9     0.000     0.000     0.000     0.019       -9        0        0        0        0        0        0     0.000       -9     -9.9       -9       -9       -9       -9    0.000    0.000       15        1     1997  tom.PRO
      Day       16        1     1997      0.0      4.0     15.2   363.88      0.0      0.0      0.0      0.0      0.0      0.5       42      0.0      0.0       -9     0.000     0.000     0.000     0.019       -9        0        0        0        0        0        0     0.000       -9     -9.9       -9       -9       -9       -9    0.000    0.000       16        1     1997  tom.PRO
      Day       17        1     1997      0.0      4.0     15.6   363.88      1.0      1.0      0.0      0.0      0.0      0.8       56      0.0      0.0       -9     0.010     0.000     0.000     0.029       -9        0        0        0        0        0        0     0.000       -9     -9.9       -9       -9       -9       -9    0.000    0.000       17        1     1997  tom.PRO
      Day       18        1     1997      0.0      3.8     15.3   363.88      0.0      0.0      0.0      0.0      0.0      0.5       39      0.1      0.1      100     0.000     0.000     0.000     0.029        1        0        0        0        0        0        0     0.002      100      0.0       -9       -9       -9       -9    0.000    0.000       18        1     1997  tom.PRO
      Day       19        1     1997      0.0      4.5     16.2   363.88      1.0      1.0      0.0      0.0      0.0      0.8       53      0.1      0.1      100     0.010     0.000     0.000     0.038        2        0        0        0        0        4        0     0.003       99      0.0       -9       -9       -9       -9    0.000    0.000       19        1     1997  tom.PRO
      Day       20        1     1997      0.0      4.9     15.8   363.88      0.0      0.0      0.0      0.0      0.0      0.6       36      0.1      0.1      100     0.000     0.000     0.000     0.038        3        0        0        0        0        7        0     0.003       97      0.0       -9       -9       -9       -9    0.000    0.000       20        1     1997  tom.PRO
      Day       21        1     1997      0.0      4.7     15.7   363.88      1.0      1.0      0.0      0.0      0.0      0.7       49      0.1      0.1      100     0.010     0.000     0.000     0.048        4        0        0        0        0        8        0     0.004       95      0.0       -9       -9       -9       -9    0.000    0.000       21        1     1997  tom.PRO
      Day       22        1     1997      0.0      6.2     16.8   363.88      0.0      0.0      0.0      0.0      0.0      0.6       32      0.2      0.2      100     0.000     0.000     0.000     0.048        5        0        0        0        0       10        0     0.004       92      0.0       -9       -9       -9       -9    0.000    0.000       22        1     1997  tom.PRO
      Day       23        1     1997      0.0      6.1     16.3   363.88      1.0      1.0      0.0      0.0      0.0      0.8       42      0.2      0.2      100     0.010     0.000     0.000     0.058        6        0        0        0        0       12        0     0.005       89      0.0       -9       -9       -9       -9    0.000    0.000       23        1     1997  tom.PRO
      Day       24        1     1997      0.0      5.2     16.0   363.88      0.0      0.0      0.0      0.0      0.0      0.5       28      0.2      0.2      100     0.000     0.000     0.000     0.058        7        0        0        0        0       13        0     0.006       87      0.0       -9       -9       -9       -9    0.000    0.000       24        1     1997  tom.PRO
      Day       25        1     1997      0.0      5.0     15.6   363.88      1.0      1.0      0.0      0.0      0.0      0.7       43      0.2      0.2      100     0.010     0.000     0.000     0.067        8        0        0        0        0       13        0     0.006       85      0.0       -9       -9       -9       -9    0.000    0.000       25        1     1997  tom.PRO
      Day       26        1     1997      0.0      5.3     16.2   363.88      0.0      0.0      0.0      0.0      0.0      0.4       26      0.2      0.2      100     0.000     0.000     0.000     0.067        9        0        0        0        0       14        0     0.007       82      0.0       -9       -9       -9       -9    0.000    0.000       26        1     1997  tom.PRO
      Day       27        1     1997      0.0      5.5     15.8   363.88      1.0      1.0      0.0      0.0      0.0      0.7       40      0.3      0.3      100     0.010     0.000     0.000     0.077       10        0        0        0        0       14        0     0.008       80      0.0       -9       -9       -9       -9    0.000    0.000       27        1     1997  tom.PRO
      Day       28        1     1997      0.0      5.8     16.9   363.88      0.0      0.0      0.0      0.0      0.0      0.4       24      0.3      0.3      100     0.000     0.000     0.000     0.077       11        0        0        0        0       15        0     0.009       77      0.0       -9       -9       -9       -9    0.000    0.000       28        1     1997  tom.PRO
      Day       29        1     1997      0.0      5.4     16.8   363.88      1.0      1.0      0.0      0.0      0.0      0.6       38      0.3      0.3      100     0.010     0.000     0.000     0.086       12        0        0        0        0       16        0     0.011       75      0.0       -9       -9       -9       -9    0.000    0.000       29        1     1997  tom.PRO
      Day       30        1     1997      0.0      4.6     16.6   363.88      0.0      0.0      0.0      0.0      0.0      0.3       22      0.3      0.3      100     0.000     0.000     0.000     0.086       13        0        0        0        0       16        0     0.012       73      0.0       -9       -9       -9       -9    0.000    0.000       30        1     1997  tom.PRO
      Day       31        1     1997      0.0      4.1     16.5   363.88      1.0      1.0      0.0      0.0      0.0      0.5       42      0.3      0.3      100     0.010     0.000     0.000     0.096       14        0        0        0        0       16        0     0.014       71      0.0       -9       -9       -9       -9    0.000    0.000       31        1     1997  tom.PRO
      Day        1        2     1997      0.0      4.7     16.5   363.88      0.0      0.0      0.0      0.0      0.0      0.3       21      0.4      0.4      100     0.000     0.000     0.000     0.096       15        0        0        0        0       16        0     0.016       69      0.0       -9       -9       -9       -9    0.000    0.000        1        2     1997  tom.PRO
      Day        2        2     1997      0.0      5.7     17.0   363.88      1.0      1.0      0.0      0.0      0.0      0.6       36      0.6      0.6      100     0.010     0.000     0.000     0.106       16        0        0        0        0       16        0     0.018       67      0.0       -9       -9       -9       -9    0.000    0.000        2        2     1997  tom.PRO
      Day        3        2     1997      0.0      4.9     17.1   363.88      0.0      0.0      0.0      0.0      0.0      0.3       19      0.5      0.5      100     0.000     0.000     0.000     0.106       17        0        0        0        0       17        0     0.020       65      0.0       -9       -9       -9       -9    0.000    0.000        3        2     1997  tom.PRO
      Day        4        2     1997      0.0      5.5     17.9   363.88      1.0      1.0      0.0      0.0      0.0      0.6       35      0.7      0.7      100     0.010     0.000     0.000     0.115       18        0        0        0        0       17        0     0.022       63      0.0       -9       -9       -9       -9    0.000    0.000        4        2     1997  tom.PRO
      Day        5        2     1997      0.0      5.4     17.6   363.88      0.0      0.0      0.0      0.0      0.0      0.3       17      0.8      0.8      100     0.000     0.000     0.000     0.115       19        0        0        0        0       18        0     0.025       60      0.0       -9       -9       -9       -9    0.000    0.000        5        2     1997  tom.PRO
      Day        6        2     1997      0.0      5.9     17.8   363.88      1.0      1.0      0.0      0.0      0.0      0.5       33      0.9      0.9      100     0.010     0.000     0.000     0.125       20        0        0        0        0       18        0     0.028       58      0.0       -9       -9       -9       -9    0.000    0.000        6        2     1997  tom.PRO
      Day        7        2     1997      0.0      5.8     17.5   363.88      0.0      0.0      0.0      0.0      0.0      0.2       15      1.0      1.0      100     0.000     0.000     0.000     0.125       21        0        0        0        0       20        0     0.030       55      0.0       -9       -9       -9       -9    0.000    0.000        7        2     1997  tom.PRO
      Day        8        2     1997      0.0      5.8     16.4   363.88      1.0      1.0      0.0      0.0      0.0      0.5       31      1.1      1.1      100     0.010     0.000     0.000     0.134       22        0        0        0        0       21        0     0.033       52      0.0       -9       -9       -9       -9    0.000    0.000        8        2     1997  tom.PRO
      Day        9        2     1997      0.0      6.2     17.2   363.88      0.0      0.0      0.0      0.0      0.0      0.2       12      1.2      1.2      100     0.000     0.000     0.000     0.134       23        0        0        0        0       22        0     0.035       48      0.0       -9       -9       -9       -9    0.000    0.000        9        2     1997  tom.PRO
      Day       10        2     1997      0.0      6.0     16.2   363.88      1.0      1.0      0.0      0.0      0.0      0.4       28      1.2      1.2      100     0.010     0.000     0.000     0.144       24        0        0        0        0       24        0     0.037       45      0.0       -9       -9       -9       -9    0.000    0.000       10        2     1997  tom.PRO
      Day       11        2     1997      0.0      5.3     16.0   363.88      0.0      0.0      0.0      0.0      0.0      0.1        9      1.2      1.2      100     0.000     0.000     0.000     0.144       25        0        0        0        0       25        0     0.039       42      0.0       -9       -9       -9       -9    0.000    0.000       11        2     1997  tom.PRO
      Day       12        2     1997      0.0      6.2     17.0   363.88      1.0      1.0      0.0      0.0      0.0      0.4       26      1.3      1.3       94     0.010     0.000     0.000     0.154       26        0        0        0        0       27        0     0.038       36      0.0       -9       -9       -9       -9    0.000    0.000       12        2     1997  tom.PRO
      Day       13        2     1997      0.0      6.6     17.4   363.88      0.0      0.0      0.0      0.0      0.0      0.1        7      1.3      1.3       87     0.000     0.000     0.000     0.154       27        0        0        0        0       30        1     0.035       31      0.0       -9       -9       -9       -9    0.000    0.000       13        2     1997  tom.PRO
      Day       14        2     1997      0.0      6.2     17.1   363.88      1.0      1.0      0.0      0.0      0.0      0.4       25      1.2      1.2       88     0.010     0.000     0.000     0.163       28        0        0        0        0       33        1     0.035       29      0.0       -9       -9       -9       -9    0.000    0.000       14        2     1997  tom.PRO
      Day       15        2     1997      0.0      5.2     16.9   363.88      0.0      0.0      0.0      0.0      0.0      0.1        7      1.0      1.0       88     0.000     0.000     0.000     0.163       29        0        0        0        0       35        1     0.036       28      0.0       -9       -9       -9       -9    0.000    0.000       15        2     1997  tom.PRO
      Day       16        2     1997      0.0      5.2     16.9   363.88      1.0      1.0      0.0      0.0      0.0      0.4       29      1.0      1.0       88     0.010     0.000     0.000     0.173       30        0        0        0        0       37        2     0.035       27      0.0       -9       -9       -9       -9    0.000    0.000       16        2     1997  tom.PRO
      Day       17        2     1997      0.0      5.8     17.4   363.88      0.0      0.0      0.0      0.0      0.0      0.1        6      1.1      1.1       81     0.000     0.000     0.000     0.173       31        0        0        0        0       39        2     0.033       24      0.0       -9       -9       -9       -9    0.000    0.000       17        2     1997  tom.PRO
      Day       18        2     1997      0.0      6.2     16.8   363.88      1.0      1.0      0.0      0.0      0.0      0.4       25      1.1      1.1       78     0.010     0.000     0.000     0.182       32        0        0        0        0       41        3     0.032       23      0.0       -9       -9       -9       -9    0.000    0.000       18        2     1997  tom.PRO
      Day       19        2     1997      0.0      5.6     17.2   363.88      0.0      0.0      0.0      0.0      0.0      0.1        7      1.0      1.0       77     0.000     0.000     0.000     0.182       33        0        0        0        0       43        4     0.031       22      0.0       -9       -9       -9       -9    0.000    0.000       19        2     1997  tom.PRO
      Day       20        2     1997      0.1      4.3     16.7   363.88      1.0      1.1      0.0      0.0      0.0      0.4       36      0.8      0.8       83     0.010     0.000     0.000     0.192       34        0        0        0        0       44        4     0.034       23      0.0       -9       -9       -9       -9    0.000    0.000       20        2     1997  tom.PRO
      Day       21        2     1997      0.2      4.5     17.3   363.88      0.0      0.2      0.0      0.0      0.0      0.1       12      0.8      0.8       80     0.000     0.000     0.000     0.192       35        0        0        0        0       46        4     0.033       22      0.0       -9       -9       -9       -9    0.000    0.000       21        2     1997  tom.PRO
      Day       22        2     1997      0.0      5.6     16.4   363.88      0.0      0.0      0.0      0.0      0.0      0.1        7      0.9      0.9       73     0.000     0.000     0.000     0.192       36        0        0        0        0       48        5     0.029       20      0.0       -9       -9       -9       -9    0.000    0.000       22        2     1997  tom.PRO
      Day       23        2     1997      0.0      7.4     16.8   363.88      0.0      0.0      0.0      0.0      0.0      0.1        7      1.1      1.1       63     0.000     0.000     0.000     0.192       37        0        0        0        0       49        6     0.026       17      0.0       -9       -9       -9       -9    0.000    0.000       23        2     1997  tom.PRO
      Day       24        2     1997      0.0      7.0     16.4   363.88      0.0      0.0      0.0      0.0      0.0      0.1        6      1.0      1.0       61     0.000     0.000     0.000     0.192       38        0        0        0        0       50        7     0.025       16      0.0       -9       -9       -9       -9    0.000    0.000       24        2     1997  tom.PRO
      Day       25        2     1997      0.0      5.7     16.3   363.88      0.0      0.0      0.0      0.0      0.0      0.1        6      0.8      0.8       63     0.000     0.000     0.000     0.192       39        0        0        0        0       52        8     0.025       17      0.0       -9       -9       -9       -9    0.000    0.000       25        2     1997  tom.PRO
      Day       26        2     1997      0.0      6.1     17.5   363.88      0.0      0.0      0.0      0.0      0.0      0.1        6      0.8      0.8       59     0.000     0.000     0.000     0.192       40        0        0        0        0       53        8     0.024       16      0.0       -9       -9       -9       -9    0.000    0.000       26        2     1997  tom.PRO
      Day       27        2     1997      0.0      6.3     18.3   363.88      1.0      1.0      0.0      0.0      0.0      0.4       24      0.8      0.8       59     0.010     0.000     0.000     0.202       41        0        0        0        0       54        9     0.024       15      0.0       -9       -9       -9       -9    0.000    0.000       27        2     1997  tom.PRO
      Day       28        2     1997      0.0      6.0     18.3   363.88      0.0      0.0      0.0      0.0      0.0      0.1        7      0.8      0.8       57     0.000     0.000     0.000     0.202       42        0        0        0        0       55       10     0.023       15      0.0       -9       -9       -9       -9    0.000    0.000       28        2     1997  tom.PRO
      Day        1        3     1997      0.0      5.6     18.6   363.88      0.0      0.0      0.0      0.0      0.0      0.1        7      0.7      0.7       56     0.000     0.000     0.000     0.202       43        0        0        0        0       56       11     0.023       15      1.4       -9       -9       -9       -9    0.000    0.000        1        3     1997  tom.PRO
      Day        2        3     1997      0.0      4.5     18.1   363.88      0.0      0.0      0.0      0.0      0.0      0.1        7      0.6      0.6       58     0.000     0.000     0.000     0.202       44        0        0        0        0       57       11     0.023       15      1.6       -9       -9       -9       -9    0.000    0.000        2        3     1997  tom.PRO
      Day        3        3     1997      0.2      4.8     17.4   363.88      0.0      0.2      0.0      0.0      0.0      0.1       11      0.6      0.6       56     0.000     0.000     0.000     0.202       45        0        0        0        0       58       12     0.023       14      1.8       -9       -9       -9       -9    0.000    0.000        3        3     1997  tom.PRO
      Day        4        3     1997      0.0      5.5     16.0   363.88      0.0      0.0      0.0      0.0      0.0      0.1        7      0.7      0.7       52     0.000     0.000     0.000     0.202       46        0        0        0        0       59       13     0.021       13      2.1       -9       -9       -9       -9    0.000    0.000        4        3     1997  tom.PRO
      Day        5        3     1997      0.0      6.1     15.8   363.88      0.0      0.0      0.0      0.0      0.0      0.1        6      0.7      0.7       48     0.000     0.000     0.000     0.202       47        0        0        0        0       60       14     0.019       12      2.4       -9       -9       -9       -9    0.000    0.000        5        3     1997  tom.PRO
      Day        6        3     1997      0.0      6.8     16.2   363.88      1.0      1.0      0.0      0.0      0.0      0.4       23      0.7      0.7       46     0.010     0.000     0.000     0.211       48        0        0        0        0       61       15     0.018       12      2.7       -9       -9       -9       -9    0.000    0.000        6        3     1997  tom.PRO
      Day        7        3     1997      0.0      7.2     17.0   363.88      0.0      0.0      0.0      0.0      0.0      0.1        7      0.7      0.7       42     0.000     0.000     0.000     0.211       49        0        0        0        0       61       16     0.017       11      3.1       -9       -9       -9       -9    0.000    0.000        7        3     1997  tom.PRO
      Day        8        3     1997      0.0      8.2     17.7   363.88      0.0      0.0      0.0      0.0      0.0      0.1        7      0.7      0.7       38     0.000     0.000     0.000     0.211       50        0        0        0        0       62       16     0.015        9      3.5       -9       -9       -9       -9    0.000    0.000        8        3     1997  tom.PRO
      Day        9        3     1997      0.0      7.7     17.4   363.88      0.0      0.0      0.0      0.0      0.0      0.1        6      0.6      0.6       36     0.000     0.000     0.000     0.211       51        0        0        0        0       63       17     0.014        9      4.0       -9       -9       -9       -9    0.000    0.000        9        3     1997  tom.PRO
      Day       10        3     1997      0.0      7.6     17.6   363.88      0.0      0.0      0.0      0.0      0.0      0.1        6      0.6      0.6       34     0.000     0.000     0.000     0.211       52        0        0        0        0       64       18     0.013        8      4.5       -9       -9       -9       -9    0.000    0.000       10        3     1997  tom.PRO
      Day       11        3     1997      0.0      7.1     17.2   363.88      0.0      0.0      0.0      0.0      0.0      0.1        6      0.5      0.5       32     0.000     0.000     0.000     0.211       53        0        0        0        0       64       19     0.012        8      5.1       -9       -9       -9       -9    0.000    0.000       11        3     1997  tom.PRO
      Day       12        3     1997      0.0      7.1     18.0   363.88      0.0      0.0      0.0      0.0      0.0      0.1        6      0.5      0.5       31     0.000     0.000     0.000     0.211       54        0        0        0        0       65       20     0.012        7      5.7       -9       -9       -9       -9    0.000    0.000       12        3     1997  tom.PRO
      Day       13        3     1997      0.0      6.0     17.8   363.88      1.0      1.0      0.0      0.0      0.0      0.4       25      0.4      0.4       33     0.010     0.000     0.000     0.221       55        0        0        0        0       66       21     0.012        8      6.4       -9       -9       -9       -9    0.000    0.000       13        3     1997  tom.PRO
      Day       14        3     1997      0.0      5.6     17.4   363.88      0.0      0.0      0.0      0.0      0.0      0.1        7      0.4      0.4       32     0.000     0.000     0.000     0.221       56        0        0        0        0       66       22     0.012        7      7.2       -9       -9       -9       -9    0.000    0.000       14        3     1997  tom.PRO
      Day       15        3     1997      0.0      5.2     17.0   363.88      0.0      0.0      0.0      0.0      0.0      0.1        7      0.3      0.3       31     0.000     0.000     0.000     0.221       57        0        0        0        0       67       23     0.011        7      8.1       -9       -9       -9       -9    0.000    0.000       15        3     1997  tom.PRO
      Day       16        3     1997      0.0      5.2     16.6   363.88      0.0      0.0      0.0      0.0      0.0      0.1        6      0.3      0.3       29     0.000     0.000     0.000     0.221       58        0        0        0        0       67       24     0.010        7      9.1       -9       -9       -9       -9    0.000    0.000       16        3     1997  tom.PRO
      Day       17        3     1997      0.0      5.3     17.1   363.88      0.0      0.0      0.0      0.0      0.0      0.1        6      0.3      0.3       28     0.000     0.000     0.000     0.221       59        0        0        0        0       68       24     0.010        6     10.2       -9       -9       -9       -9    0.000    0.000       17        3     1997  tom.PRO
      Day       18        3     1997      0.0      5.1     18.0   363.88      0.0      0.0      0.0      0.0      0.0      0.1        6      0.3      0.3       27     0.000     0.000     0.000     0.221       60        0        0        0        0       69       25     0.009        6     11.3       -9       -9       -9       -9    0.000    0.000       18        3     1997  tom.PRO
      Day       19        3     1997      0.0      6.0     18.0   363.88      0.0      0.0      0.0      0.0      0.0      0.1        6      0.3      0.3       24     0.000     0.000     0.000     0.221       61        0        0        0        0       69       26     0.008        5     12.4       -9       -9       -9       -9    0.000    0.000       19        3     1997  tom.PRO
      Day       20        3     1997      0.0      8.3     17.6   363.88      1.0      1.0      0.0      0.0      0.0      0.4       20      0.3      0.3       22     0.010     0.000     0.000     0.230       62        0        0        0        0       70       27     0.007        5     13.5       -9       -9       -9       -9    0.000    0.000       20        3     1997  tom.PRO
      Day       21        3     1997      0.0      7.5     18.2   363.88      0.0      0.0      0.0      0.0      0.0      0.1        7      0.3      0.3       22     0.000     0.000     0.000     0.230       63        0        0        0        0       70       28     0.007        4     14.5       -9       -9       -9       -9    0.000    0.000       21        3     1997  tom.PRO
      Day       22        3     1997      0.0      5.7     18.1   363.88      0.0      0.0      0.0      0.0      0.0      0.1        7      0.2      0.2       23     0.000     0.000     0.000     0.230       64        0        0        0        0       70       28     0.007        4     15.6       -9       -9       -9       -9    0.000    0.000       22        3     1997  tom.PRO
      Day       23        3     1997      0.0      5.7     17.4   363.88      0.0      0.0      0.0      0.0      0.0      0.1        6      0.2      0.2       22     0.000     0.000     0.000     0.230       65        0        0        0        0       71       29     0.006        4     16.7       -9       -9       -9       -9    0.000    0.000       23        3     1997  tom.PRO
      Day       24        3     1997      0.0      5.3     17.7   363.88      0.0      0.0      0.0      0.0      0.0      0.1        6      0.2      0.2       21     0.000     0.000     0.000     0.230       66        0        0        0        0       71       30     0.006        4     17.7       -9       -9       -9       -9    0.000    0.000       24        3     1997  tom.PRO
      Day       25        3     1997      0.0      5.6     18.2   363.88      0.0      0.0      0.0      0.0      0.0      0.1        6      0.2      0.2       20     0.000     0.000     0.000     0.230       67        0        0        0        0       72       31     0.005        3     18.8       -9       -9       -9       -9    0.000    0.000       25        3     1997  tom.PRO
      Day       26        3     1997      0.0      5.8     17.6   363.88      0.0      0.0      0.0      0.0      0.0      0.1        6      0.2      0.2       19     0.000     0.000     0.000     0.230       68        0        0        0        0       72       31     0.005        3     19.8       -9       -9       -9       -9    0.000    0.000       26        3     1997  tom.PRO
      Day       27        3     1997      0.0      5.2     18.1   363.88      1.0      1.0      0.0      0.0      0.0      0.4       26      0.1      0.1       22     0.010     0.000     0.000     0.240       69        0        0        0        0       73       32     0.005        3     20.9       -9       -9       -9       -9    0.000    0.000       27        3     1997  tom.PRO
      Day       28        3     1997      0.0      4.9     18.4   363.88      0.0      0.0      0.0      0.0      0.0      0.1        7      0.1      0.1       22     0.000     0.000     0.000     0.240       70        0        0        0        0       73       33     0.004        3     22.0       -9       -9       -9       -9    0.000    0.000       28        3     1997  tom.PRO
      Day       29        3     1997      0.0      5.7     18.7   363.88      0.0      0.0      0.0      0.0      0.0      0.1        7      0.1      0.1       20     0.000     0.000     0.000     0.240       71        0        0        0        0       73       33     0.004        2     23.0       -9       -9       -9       -9    0.000    0.000       29        3     1997  tom.PRO
      Day       30        3     1997      0.0      6.1     18.8   363.88      0.0      0.0      0.0      0.0      0.0      0.1        6      0.1      0.1       19     0.000     0.000     0.000     0.240       72        0        0        0        0       73       34     0.003        2     24.0       -9       -9       -9       -9    0.000    0.000       30        3     1997  tom.PRO
      Day       31        3     1997      0.0      7.0     18.8   363.88      0.0      0.0      0.0      0.0      0.0      0.1        6      0.1      0.1       18     0.000     0.000     0.000     0.240       73        0        0        0        0       73       35     0.003        2     25.0       -9       -9       -9       -9    0.000    0.000       31        3     1997  tom.PRO
      Day        1        4     1997      0.0      6.1     19.2   363.88      0.0      0.0      0.0      0.0      0.0      0.1        6      0.1      0.1       18     0.000     0.000     0.000     0.240       74        0        0        0        0       73       35     0.002        1     26.1       -9       -9       -9       -9    0.000    0.000        1        4     1997  tom.PRO
      Day        2        4     1997      0.0      5.8     17.7   363.88      0.0      0.0      0.0      0.0      0.0      0.1        6      0.1      0.1       18     0.000     0.000     0.000     0.240       75        0        0        0        0       73       36     0.002        1     27.1       -9       -9       -9       -9    0.000    0.000        2        4     1997  tom.PRO
      Day        3        4     1997      0.0      5.7     17.8   363.88      1.0      1.0      0.0      0.0      0.0      0.4       24      0.1      0.1       20     0.010     0.000     0.000     0.250       76        0        0        0        0       73       37     0.002        1     28.1       -9       -9       -9       -9    0.000    0.000        3        4     1997  tom.PRO
      Day        4        4     1997      0.0      6.1     18.2   363.88      0.0      0.0      0.0      0.0      0.0      0.4        7      0.0      0.0       -9     0.000     0.000     0.000     0.250       76        0        0        0        0       73       37     0.000       -9     28.9       -9       -9       -9       -9    0.000    0.000        4        4     1997  tom.PRO
   Tot(1)        9        1     1997      2.0    486.0   1477.4   363.88     26.0     28.0      0.0      0.0      0.0     36.8       25     41.4     41.4       58     0.250     0.000     0.000     0.250       76        0        0        0        0       73       37     1.266       15     28.9    0.366    7.322     0.47    0.000    0.000        4        4     1997  tom.PRO
