AquaCrop 7.2 (August 2024) - Output created on (date) : 08-12-2024   at (time) : 23:32:15

   Day Month  Year   DAP Stage   WC(1.20)   Rain     Irri   Surf   Infilt   RO    Drain       CR    Zgwt       Ex       E     E/Ex     Trx       Tr  Tr/Trx    ETx      ET  ET/ETx      GD       Z     StExp  StSto  StSen StSalt StWeed   CC      CCw     StTr  Kc(Tr)     Trx       Tr      TrW  Tr/Trx   WP    Biomass     HI    Y(dry)  Y(fresh)  Brelative    WPet      Bin     Bout  WC(1.20) Wr(1.00)     Z       Wr    Wr(SAT)    Wr(FC)   Wr(exp)   Wr(sto)   Wr(sen)   Wr(PWP)    SaltIn    SaltOut   SaltUp   Salt(1.20)  SaltZ     Z       ECe    ECsw   StSalt  Zgwt    ECgw       WC01       WC 2       WC 3       WC 4       WC 5       WC 6       WC 7       WC 8       WC 9       WC10       WC11       WC12      ECe01      ECe 2      ECe 3      ECe 4      ECe 5      ECe 6      ECe 7      ECe 8      ECe 9      ECe10      ECe11      ECe12     Rain       ETo      Tmin      Tavg      Tmax      CO2
                                      mm      mm       mm     mm     mm     mm       mm       mm      m        mm       mm     %        mm       mm    %        mm      mm       %  degC-day     m       %      %      %      %      %      %       %       %       -        mm       mm       mm    %     g/m2    ton/ha      %    ton/ha   ton/ha       %       kg/m3   ton/ha   ton/ha      mm       mm       m       mm        mm        mm        mm        mm        mm         mm    ton/ha    ton/ha    ton/ha    ton/ha    ton/ha     m      dS/m    dS/m      %     m      dS/m       0.05       0.15       0.25       0.35       0.45       0.55       0.65       0.75       0.85       0.95       1.05       1.15       0.05       0.15       0.25       0.35       0.45       0.55       0.65       0.75       0.85       0.95       1.05       1.15       mm        mm     degC      degC      degC       ppm
    22     1  1996     1     1     260.8     0.0      0.0    0.0    0.0    0.0      0.0      0.0   -9.90      4.2      3.2     76      0.0      0.0   100      4.2     3.2      76     15.2    0.30     -9     -9     -9      0     -9     0.0     0.0      0    -9.00      0.0      0.0      0.0   100     0.0     0.000    -9.9    0.000    0.000      -9        0.00    0.000    0.000     260.8    216.8    0.30    62.8     123.0      66.0      60.6      46.7      40.8      30.0    0.000     0.000     0.000     0.000     0.000    0.30     0.00    0.00      0   -9.90   -9.00       18.8       22.0       22.0       22.0       22.0       22.0       22.0       22.0       22.0       22.0       22.0       22.0        0.0        0.0        0.0        0.0        0.0        0.0        0.0        0.0        0.0        0.0        0.0        0.0      0.0       3.8      16.4      23.4      30.5    362.74
    23     1  1996     2     1     258.7     0.0      0.0    0.0    0.0    0.0      0.0      0.0   -9.90      4.3      2.1     50      0.0      0.0   100      4.3     2.1      50     14.5    0.30     -9     -9     -9      0     -9     0.0     0.0      0    -9.00      0.0      0.0      0.0   100     0.0     0.000    -9.9    0.000    0.000      -9        0.00    0.000    0.000     258.7    214.7    0.30    60.7     123.0      66.0      60.6      46.8      40.8      30.0    0.000     0.000     0.000     0.000     0.000    0.30     0.00    0.00      0   -9.90   -9.00       16.7       22.0       22.0       22.0       22.0       22.0       22.0       22.0       22.0       22.0       22.0       22.0        0.0        0.0        0.0        0.0        0.0        0.0        0.0        0.0        0.0        0.0        0.0        0.0      0.0       3.9      15.0      22.2      29.5    362.74
    24     1  1996     3     1     256.9     0.0      0.0    0.0    0.0    0.0      0.0      0.0   -9.90      4.8      1.8     36      0.0      0.0   100      4.8     1.8      36     14.0    0.30     -9     -9     -9      0     -9     0.0     0.0      0    -9.00      0.0      0.0      0.0   100     0.0     0.000    -9.9    0.000    0.000      -9        0.00    0.000    0.000     256.9    212.9    0.30    58.9     123.0      66.0      60.6      47.4      40.8      30.0    0.000     0.000     0.000     0.000     0.000    0.30     0.00    0.00      0   -9.90   -9.00       14.9       22.0       22.0       22.0       22.0       22.0       22.0       22.0       22.0       22.0       22.0       22.0        0.0        0.0        0.0        0.0        0.0        0.0        0.0        0.0        0.0        0.0        0.0        0.0      0.0       4.4      14.0      21.8      29.5    362.74
    25     1  1996     4     1     255.6     0.0      0.0    0.0    0.0    0.0      0.0      0.0   -9.90      4.6      1.3     28      0.0      0.0   100      4.6     1.3      28     13.0    0.30     -9     -9     -9      0     -9     0.0     0.0      0    -9.00      0.0      0.0      0.0   100     0.0     0.000    -9.9    0.000    0.000      -9        0.00    0.000    0.000     255.6    211.6    0.30    57.6     123.0      66.0      60.6      47.1      40.8      30.0    0.000     0.000     0.000     0.000     0.000    0.30     0.00    0.00      0   -9.90   -9.00       13.6       22.0       22.0       22.0       22.0       22.0       22.0       22.0       22.0       22.0       22.0       22.0        0.0        0.0        0.0        0.0        0.0        0.0        0.0        0.0        0.0        0.0        0.0        0.0      0.0       4.2      12.0      20.5      29.0    362.74
    26     1  1996     5     2     254.6     0.0      0.0    0.0    0.0    0.0      0.0      0.0   -9.90      4.2      1.0     23      0.1      0.1   100      4.3     1.0      24     14.0    0.33     -9      0      0      0      0     0.8     0.8      0     0.01      0.1      0.1      0.1   100    17.7     0.003    -9.9    0.000    0.000     100        0.00    0.000    0.000     254.6    210.6    0.33    62.4     133.9      71.8      64.3      51.0      43.4      32.6    0.000     0.000     0.000     0.000     0.000    0.33     0.00    0.00      0   -9.90   -9.00       12.6       22.0       22.0       22.0       22.0       22.0       22.0       22.0       22.0       22.0       22.0       22.0        0.0        0.0        0.0        0.0        0.0        0.0        0.0        0.0        0.0        0.0        0.0        0.0      0.0       3.9      14.0      22.1      30.2    362.74
    27     1  1996     6     2     253.6     0.0      0.0    0.0    0.0    0.0      0.0      0.0   -9.90      4.4      0.9     20      0.1      0.1   100      4.5     0.9      21     14.2    0.35      2      0      0      0      0     0.9     0.9      0     0.02      0.1      0.1      0.1   100    17.7     0.005    -9.9    0.000    0.000     100        0.00    0.000    0.000     253.6    209.6    0.35    66.9     143.9      77.2      69.5      55.1      46.9      35.1    0.000     0.000     0.000     0.000     0.000    0.35     0.00    0.00      0   -9.90   -9.00       11.6       22.0       22.0       22.0       22.0       22.0       22.0       22.0       22.0       22.0       22.0       22.0        0.0        0.0        0.0        0.0        0.0        0.0        0.0        0.0        0.0        0.0        0.0        0.0      0.0       4.1      14.5      22.8      31.0    362.74
    28     1  1996     7     2     252.7     0.0      0.0    0.0    0.0    0.0      0.0      0.0   -9.90      5.2      0.9     17      0.1      0.1   100      5.3     1.0      18     15.1    0.37      4      0      0      0      0     1.0     1.0      0     0.02      0.1      0.1      0.1   100    17.7     0.009    -9.9    0.000    0.000     100        0.00    0.000    0.000     252.7    208.7    0.37    70.9     153.2      82.2      75.2      59.5      50.6      37.4    0.000     0.000     0.000     0.000     0.000    0.37     0.00    0.00      0   -9.90   -9.00       10.7       22.0       22.0       22.0       22.0       22.0       22.0       22.0       22.0       22.0       22.0       22.0        0.0        0.0        0.0        0.0        0.0        0.0        0.0        0.0        0.0        0.0        0.0        0.0      0.0       4.8      16.2      23.4      30.5    362.74
    29     1  1996     8     2     251.9     0.0      0.0    0.0    0.0    0.0      0.0      0.0   -9.90      4.9      0.7     14      0.1      0.1   100      5.0     0.8      16     14.5    0.39      4      0      0      0      0     1.1     1.1      0     0.02      0.1      0.1      0.1   100    17.7     0.012    -9.9    0.000    0.000      99        0.00    0.000    0.000     251.9    207.9    0.39    74.8     161.9      86.9      78.9      62.5      53.2      39.5    0.000     0.000     0.000     0.000     0.000    0.39     0.00    0.00      0   -9.90   -9.00       10.0       21.9       22.0       22.0       22.0       22.0       22.0       22.0       22.0       22.0       22.0       22.0        0.0        0.0        0.0        0.0        0.0        0.0        0.0        0.0        0.0        0.0        0.0        0.0      0.0       4.5      15.0      22.5      30.0    362.74
    30     1  1996     9     2     251.1     0.0      0.0    0.0    0.0    0.0      0.0      0.0   -9.90      5.1      0.6     13      0.1      0.1   100      5.2     0.7      14     14.6    0.41      4      0      0      0      0     1.2     1.2      0     0.02      0.1      0.1      0.1   100    17.7     0.016    -9.9    0.000    0.000      99        0.00    0.000    0.000     251.1    207.1    0.41    78.4     170.1      91.3      83.2      65.9      56.1      41.5    0.000     0.000     0.000     0.000     0.000    0.41     0.00    0.00      0   -9.90   -9.00        9.3       21.8       22.0       22.0       22.0       22.0       22.0       22.0       22.0       22.0       22.0       22.0        0.0        0.0        0.0        0.0        0.0        0.0        0.0        0.0        0.0        0.0        0.0        0.0      0.0       4.7      15.2      23.0      30.8    362.74
    31     1  1996    10     2     250.5     0.0      0.0    0.0    0.0    0.0      0.0      0.0   -9.90      4.9      0.6     11      0.1      0.1   100      5.1     0.7      13     14.8    0.43      5      0      0      0      0     1.4     1.4      0     0.03      0.1      0.1      0.1   100    17.7     0.021    -9.9    0.000    0.000      99        0.00    0.000    0.000     250.5    206.5    0.43    81.9     177.9      95.5      86.9      68.8      58.5      43.4    0.000     0.000     0.000     0.000     0.000    0.43     0.00    0.00      0   -9.90   -9.00        8.8       21.7       22.0       22.0       22.0       22.0       22.0       22.0       22.0       22.0       22.0       22.0        0.0        0.0        0.0        0.0        0.0        0.0        0.0        0.0        0.0        0.0        0.0        0.0      0.0       4.6      15.6      23.2      30.8    362.74
     1     2  1996    11     2     249.9     0.0      0.0    0.0    0.0    0.0      0.0      0.0   -9.90      4.4      0.4     10      0.1      0.1   100      4.5     0.6      12     15.0    0.45      3      0      0      0      0     1.5     1.5      0     0.03      0.1      0.1      0.1   100    17.7     0.026    -9.9    0.000    0.000      99        0.00    0.000    0.000     249.9    205.9    0.45    85.4     185.4      99.5      89.5      70.9      60.4      45.2    0.000     0.000     0.000     0.000     0.000    0.45     0.00    0.00      0   -9.90   -9.00        8.3       21.6       22.0       22.0       22.0       22.0       22.0       22.0       22.0       22.0       22.0       22.0        0.0        0.0        0.0        0.0        0.0        0.0        0.0        0.0        0.0        0.0        0.0        0.0      0.0       4.1      16.0      23.5      31.0    362.74
     2     2  1996    12     2     249.3     0.0      0.0    0.0    0.0    0.0      0.0      0.0   -9.90      5.0      0.5      9      0.2      0.2   100      5.2     0.6      12     15.6    0.47      5      0      0      0      0     1.7     1.7      0     0.03      0.2      0.2      0.2   100    17.7     0.031    -9.9    0.000    0.000      98        0.00    0.000    0.000     249.3    205.3    0.47    88.7     192.7     103.4      94.3      74.7      63.5      47.0    0.000     0.000     0.000     0.000     0.000    0.47     0.00    0.00      0   -9.90   -9.00        7.9       21.4       22.0       22.0       22.0       22.0       22.0       22.0       22.0       22.0       22.0       22.0        0.0        0.0        0.0        0.0        0.0        0.0        0.0        0.0        0.0        0.0        0.0        0.0      0.0       4.7      17.2      24.2      31.2    362.74
     3     2  1996    13     2     248.8     0.0      0.0    0.0    0.0    0.0      0.0      0.0   -9.90      4.5      0.4      8      0.2      0.2   100      4.6     0.5      11     14.4    0.49      4      0      0      0      0     1.9     1.9      0     0.04      0.2      0.2      0.2   100    17.7     0.038    -9.9    0.000    0.000      98        0.00    0.000    0.000     248.8    204.8    0.49    91.9     199.6     107.1      96.6      76.5      65.2      48.7    0.000     0.000     0.000     0.000     0.000    0.49     0.00    0.00      0   -9.90   -9.00        7.5       21.3       22.0       22.0       22.0       22.0       22.0       22.0       22.0       22.0       22.0       22.0        0.0        0.0        0.0        0.0        0.0        0.0        0.0        0.0        0.0        0.0        0.0        0.0      0.0       4.2      14.8      22.1      29.5    362.74
     4     2  1996    14     2     248.2     0.0      0.0    0.0    0.0    0.0      0.0      0.0   -9.90      4.9      0.4      8      0.2      0.2   100      5.1     0.6      11     14.8    0.50      5      0      0      0      0     2.2     2.2      0     0.04      0.2      0.2      0.2   100    17.7     0.045    -9.9    0.000    0.000      98        0.00    0.000    0.000     248.2    204.2    0.50    95.0     206.4     110.8     100.8      79.8      67.9      50.3    0.000     0.000     0.000     0.000     0.000    0.50     0.00    0.00      0   -9.90   -9.00        7.1       21.1       22.0       22.0       22.0       22.0       22.0       22.0       22.0       22.0       22.0       22.0        0.0        0.0        0.0        0.0        0.0        0.0        0.0        0.0        0.0        0.0        0.0        0.0      0.0       4.6      15.6      22.8      30.0    362.74
     5     2  1996    15     2     247.6     0.0      0.0    0.0    0.0    0.0      0.0      0.0   -9.90      4.8      0.4      7      0.2      0.2   100      5.1     0.6      11     14.5    0.52      5      0      0      0      0     2.5     2.5      0     0.05      0.2      0.2      0.2   100    17.7     0.053    -9.9    0.000    0.000      97        0.00    0.000    0.000     247.6    203.6    0.52    97.9     213.0     114.3     104.0      82.4      70.1      52.0    0.000     0.000     0.000     0.000     0.000    0.52     0.00    0.00      0   -9.90   -9.00        6.8       20.9       22.0       22.0       22.0       22.0       22.0       22.0       22.0       22.0       22.0       22.0        0.0        0.0        0.0        0.0        0.0        0.0        0.0        0.0        0.0        0.0        0.0        0.0      0.0       4.6      15.0      22.5      30.0    362.74
     6     2  1996    16     2     247.1     0.0      0.0    0.0    0.0    0.0      0.0      0.0   -9.90      4.6      0.3      7      0.2      0.2   100      4.8     0.5      11     14.2    0.54      5      0      0      0      0     2.8     2.8      0     0.05      0.2      0.2      0.2   100    17.7     0.062    -9.9    0.000    0.000      97        0.00    0.000    0.000     247.1    203.1    0.54   100.8     219.4     117.8     106.7      84.5      71.9      53.5    0.000     0.000     0.000     0.000     0.000    0.54     0.00    0.00      0   -9.90   -9.00        6.5       20.6       22.0       22.0       22.0       22.0       22.0       22.0       22.0       22.0       22.0       22.0        0.0        0.0        0.0        0.0        0.0        0.0        0.0        0.0        0.0        0.0        0.0        0.0      0.0       4.4      14.5      22.5      30.5    362.74
     7     2  1996    17     2     246.5     0.0      0.0    0.0    0.0    0.0      0.0      0.0   -9.90      4.8      0.3      7      0.3      0.3   100      5.1     0.6      12     13.5    0.55      5      0      0      0      0     3.1     3.1      0     0.06      0.3      0.3      0.3   100    17.7     0.072    -9.9    0.000    0.000      96        0.00    0.000    0.000     246.5    202.5    0.55   103.6     225.7     121.1     110.2      87.3      74.3      55.1    0.000     0.000     0.000     0.000     0.000    0.55     0.00    0.00      0   -9.90   -9.00        6.1       20.4       22.0       22.0       22.0       22.0       22.0       22.0       22.0       22.0       22.0       22.0        0.0        0.0        0.0        0.0        0.0        0.0        0.0        0.0        0.0        0.0        0.0        0.0      0.0       4.6      13.0      21.8      30.5    362.74
     8     2  1996    18     2     245.9     0.0      0.0    0.0    0.0    0.0      0.0      0.0   -9.90      5.1      0.3      6      0.3      0.3   100      5.4     0.6      12     15.0    0.57      6      0      0      0      0     3.5     3.5      0     0.06      0.3      0.3      0.3   100    17.7     0.084    -9.9    0.000    0.000      96        0.00    0.000    0.000     245.9    201.9    0.57   106.3     231.9     124.4     114.0      90.3      76.8      56.6    0.000     0.000     0.000     0.000     0.000    0.57     0.00    0.00      0   -9.90   -9.00        5.8       20.1       22.0       22.0       22.0       22.0       22.0       22.0       22.0       22.0       22.0       22.0        0.0        0.0        0.0        0.0        0.0        0.0        0.0        0.0        0.0        0.0        0.0        0.0      0.0       4.9      16.0      22.9      29.8    362.74
     9     2  1996    19     2     245.1     0.0      0.0    0.0    0.0    0.0      0.0      0.0   -9.90      6.1      0.4      6      0.4      0.4   100      6.5     0.8      12     14.5    0.58     10      0      0      0      0     3.9     3.9      0     0.07      0.4      0.4      0.4   100    17.7     0.097    -9.9    0.000    0.000      96        0.00    0.000    0.000     245.1    201.1    0.58   108.7     237.9     127.6     119.5      94.7      80.3      58.0    0.000     0.000     0.000     0.000     0.000    0.58     0.00    0.00      0   -9.90   -9.00        5.4       19.6       22.0       22.0       22.0       22.0       22.0       22.0       22.0       22.0       22.0       22.0        0.0        0.0        0.0        0.0        0.0        0.0        0.0        0.0        0.0        0.0        0.0        0.0      0.0       5.9      15.0      22.2      29.5    362.74
    10     2  1996    20     2     244.3     0.0      0.0    0.0    0.0    0.0      0.0      0.0   -9.90      6.0      0.3      6      0.5      0.5   100      6.5     0.8      13     16.5    0.59     10      0      0      0      0     4.3     4.3      0     0.08      0.5      0.5      0.5   100    17.7     0.111    -9.9    0.000    0.000      95        0.00    0.000    0.000     244.3    200.3    0.59   111.1     243.8     130.8     122.5      97.0      82.3      59.5    0.000     0.000     0.000     0.000     0.000    0.59     0.00    0.00      0   -9.90   -9.00        5.1       19.2       22.0       22.0       22.0       22.0       22.0       22.0       22.0       22.0       22.0       22.0        0.0        0.0        0.0        0.0        0.0        0.0        0.0        0.0        0.0        0.0        0.0        0.0      0.0       5.9      19.0      23.8      28.5    362.74
    11     2  1996    21     2     243.6     0.0      0.0    0.0    0.0    0.0      0.0      0.0   -9.90      4.5      0.2      5      0.4      0.4   100      4.9     0.6      13     15.0    0.61      6      0      0      0      0     4.9     4.9      0     0.09      0.4      0.4      0.4   100    17.7     0.126    -9.9    0.000    0.000      94        0.00    0.000    0.000     243.6    199.6    0.61   113.5     249.6     133.9     121.6      96.3      81.9      60.9    0.000     0.000     0.000     0.000     0.000    0.61     0.00    0.00      0   -9.90   -9.00        5.0       18.6       22.0       22.0       22.0       22.0       22.0       22.0       22.0       22.0       22.0       22.0        0.0        0.0        0.0        0.0        0.0        0.0        0.0        0.0        0.0        0.0        0.0        0.0      0.0       4.5      16.0      23.0      30.0    362.74
    12     2  1996    22     2     243.0     0.0      0.0    0.0    0.0    0.0      0.0      0.0   -9.90      3.8      0.2      5      0.4      0.4   100      4.2     0.6      14     15.4    0.62      4      0      0      0      0     5.5     5.5      0     0.10      0.4      0.4      0.4   100    17.7     0.144    -9.9    0.000    0.000      94        0.00    0.000    0.000     243.0    199.0    0.62   116.0     255.2     137.0     122.4      97.0      82.6      62.3    0.000     0.000     0.000     0.000     0.000    0.62     0.00    0.00      0   -9.90   -9.00        5.0       18.0       22.0       22.0       22.0       22.0       22.0       22.0       22.0       22.0       22.0       22.0        0.0        0.0        0.0        0.0        0.0        0.0        0.0        0.0        0.0        0.0        0.0        0.0      0.0       3.8      16.8      22.6      28.5    362.74
    13     2  1996    23     2     242.4     0.0      0.0    0.0    0.0    0.0      0.0      0.0   -9.90      3.8      0.2      5      0.4      0.4   100      4.2     0.6      15     15.5    0.64      4      0      0      0      0     6.1     6.1      0     0.11      0.4      0.4      0.4   100    17.7     0.164    -9.9    0.000    0.000      93        0.00    0.000    0.000     242.4    198.4    0.64   118.4     260.8     140.0     125.1      99.1      84.4      63.6    0.000     0.000     0.000     0.000     0.000    0.64     0.00    0.00      0   -9.90   -9.00        5.0       17.4       22.0       22.0       22.0       22.0       22.0       22.0       22.0       22.0       22.0       22.0        0.0        0.0        0.0        0.0        0.0        0.0        0.0        0.0        0.0        0.0        0.0        0.0      0.0       3.8      17.0      22.8      28.5    362.74
    14     2  1996    24     2     241.7     0.0      0.0    0.0    0.0    0.0      0.0      0.0   -9.90      3.8      0.2      5      0.5      0.5   100      4.3     0.7      16     15.5    0.65      5      0      0      0      0     6.9     6.9      0     0.13      0.5      0.5      0.5   100    17.7     0.186    -9.9    0.000    0.000      93        0.00    0.000    0.000     241.7    197.7    0.65   120.7     266.3     142.9     128.0     101.4      86.4      65.0    0.000     0.000     0.000     0.000     0.000    0.65     0.00    0.00      0   -9.90   -9.00        5.0       16.7       22.0       22.0       22.0       22.0       22.0       22.0       22.0       22.0       22.0       22.0        0.0        0.0        0.0        0.0        0.0        0.0        0.0        0.0        0.0        0.0        0.0        0.0      0.0       3.9      17.0      23.3      29.6    362.74
    15     2  1996    25     2     240.9     0.0      0.0    0.0    0.0    0.0      0.0      0.0   -9.90      4.3      0.2      4      0.6      0.6   100      5.0     0.8      17     16.0    0.66      7      0      0      0      0     7.7     7.7      0     0.14      0.6      0.6      0.6   100    17.7     0.211    -9.9    0.000    0.000      92        0.00    0.000    0.000     240.9    196.9    0.66   122.7     271.8     145.8     132.4     104.9      89.2      66.3    0.000     0.000     0.000     0.000     0.000    0.66     0.00    0.00      0   -9.90   -9.00        5.0       15.9       22.0       22.0       22.0       22.0       22.0       22.0       22.0       22.0       22.0       22.0        0.0        0.0        0.0        0.0        0.0        0.0        0.0        0.0        0.0        0.0        0.0        0.0      0.0       4.5      18.0      24.0      30.0    362.74
    16     2  1996    26     2     240.0     0.0      0.0    0.0    0.0    0.0      0.0      0.0   -9.90      4.4      0.2      4      0.7      0.7   100      5.2     0.9      18     17.8    0.68      8      0      0      0      0     8.7     8.7      0     0.16      0.7      0.7      0.7   100    17.7     0.239    -9.9    0.000    0.000      92        0.00    0.000    0.000     240.0    196.0    0.68   124.7     277.1     148.7     135.6     107.4      91.4      67.6    0.000     0.000     0.000     0.000     0.000    0.68     0.00    0.00      0   -9.90   -9.00        5.0       15.0       22.0       22.0       22.0       22.0       22.0       22.0       22.0       22.0       22.0       22.0        0.0        0.0        0.0        0.0        0.0        0.0        0.0        0.0        0.0        0.0        0.0        0.0      0.0       4.7      21.5      25.8      30.0    362.74
    17     2  1996    27     2     239.0     0.0      0.0    0.0    0.0    0.0      0.0      0.0   -9.90      4.5      0.2      4      0.8      0.8   100      5.4     1.0      19     15.5    0.69      9      0      0      0      0     9.7     9.7      0     0.17      0.8      0.8      0.8   100    17.7     0.269    -9.9    0.000    0.000      91        0.00    0.000    0.000     239.0    195.0    0.69   126.5     282.4     151.5     138.8     109.9      93.5      68.9    0.000     0.000     0.000     0.000     0.000    0.69     0.00    0.00      0   -9.90   -9.00        5.0       14.0       22.0       22.0       22.0       22.0       22.0       22.0       22.0       22.0       22.0       22.0        0.0        0.0        0.0        0.0        0.0        0.0        0.0        0.0        0.0        0.0        0.0        0.0      0.0       4.9      17.0      23.8      30.5    362.74
    18     2  1996    28     2     237.9     0.0      0.0    0.0    0.0    0.0      0.0      0.0   -9.90      4.4      0.2      3      0.9      0.9   100      5.4     1.1      20     14.8    0.70     10      0      0      0      0    10.8    10.8      0     0.19      0.9      0.9      0.9   100    17.7     0.303    -9.9    0.000    0.000      91        0.00    0.000    0.000     237.9    193.9    0.70   128.2     287.6     154.3     141.4     112.0      95.2      70.1    0.000     0.000     0.000     0.000     0.000    0.70     0.00    0.00      0   -9.90   -9.00        5.0       12.9       22.0       22.0       22.0       22.0       22.0       22.0       22.0       22.0       22.0       22.0        0.0        0.0        0.0        0.0        0.0        0.0        0.0        0.0        0.0        0.0        0.0        0.0      0.0       4.9      15.5      23.2      31.0    362.74
    19     2  1996    29     2     236.6     0.0      0.0    0.0    0.0    0.0      0.0      0.0   -9.90      4.6      0.1      3      1.1      1.1   100      5.7     1.3      22     14.6    0.71     12      0      0      0      0    12.1    12.1      0     0.21      1.1      1.1      1.1   100    17.7     0.341    -9.9    0.000    0.000      90        0.00    0.000    0.000     236.6    192.6    0.71   129.7     292.7     157.1     144.9     114.7      97.5      71.4    0.000     0.000     0.000     0.000     0.000    0.71     0.00    0.00      0   -9.90   -9.00        5.0       11.6       22.0       22.0       22.0       22.0       22.0       22.0       22.0       22.0       22.0       22.0        0.0        0.0        0.0        0.0        0.0        0.0        0.0        0.0        0.0        0.0        0.0        0.0      0.0       5.2      15.2      23.4      31.5    362.74
    20     2  1996    30     2     235.3     0.0      0.0    0.0    0.0    0.0      0.0      0.0   -9.90      4.5      0.1      3      1.2      1.2   100      5.7     1.3      24     14.8    0.73     14      0      0      0      0    13.4    13.4      0     0.23      1.2      1.2      1.2   100    17.7     0.383    -9.9    0.000    0.000      89        0.00    0.000    0.000     235.3    191.3    0.73   131.1     297.8     159.8     147.4     116.7      99.2      72.6    0.000     0.000     0.000     0.000     0.000    0.73     0.00    0.00      0   -9.90   -9.00        5.0       10.3       22.0       22.0       22.0       22.0       22.0       22.0       22.0       22.0       22.0       22.0        0.0        0.0        0.0        0.0        0.0        0.0        0.0        0.0        0.0        0.0        0.0        0.0      0.0       5.2      15.6      24.3      33.0    362.74
    21     2  1996    31     2     233.8     0.0      0.0    0.0    0.0    0.0      0.0      0.0   -9.90      4.6      0.1      3      1.4      1.4   100      6.1     1.5      25     15.5    0.74     17      0      0      0      0    14.9    14.9      0     0.26      1.4      1.4      1.4   100    17.7     0.428    -9.9    0.000    0.000      88        0.00    0.000    0.000     233.8    189.8    0.74   132.2     302.8     162.5     150.8     119.5     101.4      73.8    0.000     0.000     0.000     0.000     0.000    0.74     0.00    0.00      0   -9.90   -9.00        5.0        9.8       21.0       22.0       22.0       22.0       22.0       22.0       22.0       22.0       22.0       22.0        0.0        0.0        0.0        0.0        0.0        0.0        0.0        0.0        0.0        0.0        0.0        0.0      0.0       5.5      17.0      25.5      34.0    362.74
    22     2  1996    32     2     232.1     0.0      0.0    0.0    0.0    0.0      0.0      0.0   -9.90      4.5      0.1      2      1.6      1.6   100      6.0     1.7      27     15.2    0.75     19      0      0      0      0    16.4    16.4      0     0.28      1.6      1.6      1.6   100    17.7     0.478    -9.9    0.000    0.000      88        0.00    0.000    0.000     232.1    188.1    0.75   133.2     307.7     165.1     153.3     121.4     103.1      75.1    0.000     0.000     0.000     0.000     0.000    0.75     0.00    0.00      0   -9.90   -9.00        5.0        9.7       19.4       22.0       22.0       22.0       22.0       22.0       22.0       22.0       22.0       22.0        0.0        0.0        0.0        0.0        0.0        0.0        0.0        0.0        0.0        0.0        0.0        0.0      0.0       5.5      16.4      25.7      35.0    362.74
    23     2  1996    33     2     230.4     0.0      0.0    0.0    0.0    0.0      0.0      0.0   -9.90      4.1      0.1      2      1.6      1.6   100      5.7     1.7      30     17.2    0.76     19      0      0      0      0    18.1    18.1      0     0.31      1.6      1.6      1.6   100    17.7     0.533    -9.9    0.000    0.000      87        0.00    0.000    0.000     230.4    186.4    0.76   134.2     312.6     167.8     154.7     122.5     104.1      76.3    0.000     0.000     0.000     0.000     0.000    0.76     0.00    0.00      0   -9.90   -9.00        5.0        9.6       17.8       22.0       22.0       22.0       22.0       22.0       22.0       22.0       22.0       22.0        0.0        0.0        0.0        0.0        0.0        0.0        0.0        0.0        0.0        0.0        0.0        0.0      0.0       5.2      20.5      27.6      34.8    362.74
    24     2  1996    34     2     228.3     0.0      0.0    0.0    0.0    0.0      0.0      0.0   -9.90      4.7      0.1      2      2.0      2.0   100      6.7     2.1      32     16.7    0.77     28      0      0      0      0    19.8    19.8      0     0.33      2.0      2.0      2.0   100    17.7     0.592    -9.9    0.000    0.000      86        0.00    0.000    0.000     228.3    184.3    0.77   134.6     317.5     170.4     160.2     126.9     107.6      77.4    0.000     0.000     0.000     0.000     0.000    0.77     0.00    0.00      0   -9.90   -9.00        5.0        9.5       15.8       22.0       22.0       22.0       22.0       22.0       22.0       22.0       22.0       22.0        0.0        0.0        0.0        0.0        0.0        0.0        0.0        0.0        0.0        0.0        0.0        0.0      0.0       6.1      19.4      27.7      36.0    362.74
    25     2  1996    35     3     264.0     0.0     42.4    0.0   42.4    0.0      0.0      0.0   -9.90      4.4      4.4    100      2.3      2.3   100      6.7     6.7     100     16.8    0.79      0      0      0      0      0    22.4    22.4      0     0.37      2.3      2.3      2.3   100    17.7     0.658    -9.9    0.000    0.000      85        0.00    0.000    0.000     264.0    220.0    0.79   172.9     322.3     172.9     162.7     128.8     109.3      78.6    0.000     0.000     0.000     0.000     0.000    0.79     0.00    0.00      0   -9.90   -9.00       34.3       15.9       15.8       22.0       22.0       22.0       22.0       22.0       22.0       22.0       22.0       22.0        0.0        0.0        0.0        0.0        0.0        0.0        0.0        0.0        0.0        0.0        0.0        0.0      0.0       6.1      19.6      27.3      35.0    362.74
    26     2  1996    36     3     256.7     0.0      0.0    0.0    0.0    0.0      0.0      0.0   -9.90      4.7      4.4     94      2.9      2.9   100      7.6     7.3      96     15.8    0.80      0      0      0      0      0    25.3    25.3      0     0.41      2.9      2.9      2.9   100    17.7     0.731    -9.9    0.000    0.000      84        0.00    0.000    0.000     256.7    212.7    0.80   168.2     327.0     175.5     167.9     133.0     112.6      79.8    0.000     0.000     0.000     0.000     0.000    0.80     0.00    0.00      0   -9.90   -9.00       15.1       22.4       21.2       22.0       22.0       22.0       22.0       22.0       22.0       22.0       22.0       22.0        0.0        0.0        0.0        0.0        0.0        0.0        0.0        0.0        0.0        0.0        0.0        0.0      0.0       6.9      17.5      25.8      34.0    362.74
    27     2  1996    37     3     252.2     0.0      0.0    0.0    0.0    0.0      0.0      0.0   -9.90      4.1      1.5     38      2.9      2.9   100      7.0     4.5      64     16.0    0.81      0      0      0      0      0    28.6    28.6      0     0.46      2.9      2.9      2.9   100    17.7     0.812    -9.9    0.000    0.000      84        0.00    0.000    0.000     252.2    208.2    0.81   166.2     331.7     178.0     168.5     133.5     113.1      80.9    0.000     0.000     0.000     0.000     0.000    0.81     0.00    0.00      0   -9.90   -9.00       10.6       22.0       21.5       22.0       22.0       22.0       22.0       22.0       22.0       22.0       22.0       22.0        0.0        0.0        0.0        0.0        0.0        0.0        0.0        0.0        0.0        0.0        0.0        0.0      0.0       6.4      18.0      26.0      34.0    362.74
    28     2  1996    38     3     248.3     0.0      0.0    0.0    0.0    0.0      0.0      0.0   -9.90      3.8      0.7     18      3.3      3.3   100      7.0     3.9      56     16.0    0.82      1      0      0      0      0    32.3    32.3      0     0.51      3.3      3.3      3.3   100    17.7     0.902     1.5    0.014    0.272      83        0.02    0.000    0.000     248.3    204.3    0.82   164.8     336.4     180.5     170.9     135.4     114.7      82.0    0.000     0.000     0.000     0.000     0.000    0.82     0.00    0.00      0   -9.90   -9.00       10.0       18.8       21.6       22.0       22.0       22.0       22.0       22.0       22.0       22.0       22.0       22.0        0.0        0.0        0.0        0.0        0.0        0.0        0.0        0.0        0.0        0.0        0.0        0.0      0.0       6.4      18.0      24.8      31.5    362.74
    29     2  1996    39     3     243.7     0.0      0.0    0.0    0.0    0.0      0.0      0.0   -9.90      4.0      0.5     12      4.1      4.1   100      8.1     4.6      56     14.5    0.83      5      0      0      0      0    36.3    36.3      0     0.56      4.1      4.1      4.1   100    17.7     1.001     1.7    0.017    0.345      83        0.03    0.000    0.000     243.7    199.7    0.83   162.7     341.0     183.0     177.0     140.2     118.6      83.2    0.000     0.000     0.000     0.000     0.000    0.83     0.00    0.00      0   -9.90   -9.00        9.5       14.6       21.6       22.0       22.0       22.0       22.0       22.0       22.0       22.0       22.0       22.0        0.0        0.0        0.0        0.0        0.0        0.0        0.0        0.0        0.0        0.0        0.0        0.0      0.0       7.4      15.0      24.2      33.5    362.74
     1     3  1996    40     3     239.3     0.0      0.0    0.0    0.0    0.0      0.0      0.0   -9.90      3.4      0.2      7      4.2      4.2   100      7.6     4.4      58     14.5    0.84      7      0      0      0      0    40.5    40.5      0     0.61      4.2      4.2      4.2   100    17.7     1.108     2.0    0.022    0.437      83        0.03    0.000    0.000     239.3    195.3    0.84   160.7     345.6     185.4     177.5     140.5     119.0      84.3    0.000     0.000     0.000     0.000     0.000    0.84     0.00    0.00      0   -9.90   -9.00        9.3       10.4       21.6       22.0       22.0       22.0       22.0       22.0       22.0       22.0       22.0       22.0        0.0        0.0        0.0        0.0        0.0        0.0        0.0        0.0        0.0        0.0        0.0        0.0      0.0       6.9      15.0      24.5      34.0    362.74
     2     3  1996    41     3     235.3     0.0      0.0    0.0    0.0    0.0      0.0      0.0   -9.90      2.7      0.1      4      3.9      3.9   100      6.6     4.0      61     15.8    0.85      8      0      0      0      0    44.1    44.1      0     0.65      3.9      3.9      3.9   100    17.7     1.223     2.3    0.028    0.552      84        0.04    0.000    0.000     235.3    191.3    0.85   159.1     350.1     187.9     176.3     139.7     118.5      85.4    0.000     0.000     0.000     0.000     0.000    0.85     0.00    0.00      0   -9.90   -9.00        9.1        9.5       18.6       22.0       22.0       22.0       22.0       22.0       22.0       22.0       22.0       22.0        0.0        0.0        0.0        0.0        0.0        0.0        0.0        0.0        0.0        0.0        0.0        0.0      0.0       6.0      17.5      25.5      33.5    362.74
     3     3  1996    42     3     230.5     0.0      0.0    0.0    0.0    0.0      0.0      0.0   -9.90      2.8      0.1      4      4.6      4.6   100      7.5     4.7      63     16.2    0.86     16      0      0      0      0    47.1    47.1      0     0.68      4.6      4.6      4.6   100    17.7     1.344     2.6    0.035    0.693      84        0.05    0.000    0.000     230.5    186.5    0.86   156.8     354.6     190.3     181.7     143.9     121.9      86.5    0.000     0.000     0.000     0.000     0.000    0.86     0.00    0.00      0   -9.90   -9.00        9.0        9.5       14.6       21.4       22.0       22.0       22.0       22.0       22.0       22.0       22.0       22.0        0.0        0.0        0.0        0.0        0.0        0.0        0.0        0.0        0.0        0.0        0.0        0.0      0.0       6.8      18.5      26.0      33.5    362.74
     4     3  1996    43     3     226.3     0.0      0.0    0.0    0.0    0.0      0.0      0.0   -9.90      2.3      0.1      3      4.1      4.1   100      6.4     4.2      66     14.8    0.88     17      0      0      0      0    49.8    49.8      0     0.71      4.1      4.1      4.1   100    17.7     1.469     2.9    0.043    0.866      85        0.05    0.000    0.000     226.3    182.3    0.88   155.0     359.0     192.7     180.0     142.6     121.0      87.6    0.000     0.000     0.000     0.000     0.000    0.88     0.00    0.00      0   -9.90   -9.00        9.0        9.5       10.8       21.0       22.0       22.0       22.0       22.0       22.0       22.0       22.0       22.0        0.0        0.0        0.0        0.0        0.0        0.0        0.0        0.0        0.0        0.0        0.0        0.0      0.0       5.8      15.5      23.8      32.0    362.74
     5     3  1996    44     3     222.6     0.0      0.0    0.0    0.0    0.0      0.0      0.0   -9.90      1.8      0.1      3      3.7      3.7   100      5.5     3.7      68     15.5    0.89     19      0      0      0      0    52.2    52.2      0     0.73      3.7      3.7      3.7   100    17.7     1.599     3.4    0.054    1.075      85        0.06    0.000    0.000     222.6    178.6    0.89   153.6     363.5     195.0     179.1     141.8     120.6      88.7    0.000     0.000     0.000     0.000     0.000    0.89     0.00    0.00      0   -9.90   -9.00        8.9        9.5        9.4       18.7       22.0       22.0       22.0       22.0       22.0       22.0       22.0       22.0        0.0        0.0        0.0        0.0        0.0        0.0        0.0        0.0        0.0        0.0        0.0        0.0      0.0       5.0      17.0      24.2      31.5    362.74
     6     3  1996    45     3     218.2     0.0      0.0    0.0    0.0    0.0      0.0      0.0   -9.90      2.0      0.1      3      4.3      4.3   100      6.3     4.4      69     14.8    0.90     31      0      0      0      0    54.0    54.0      0     0.75      4.3      4.3      4.3   100    17.7     1.733     3.8    0.066    1.328      86        0.08    0.000    0.000     218.2    174.2    0.90   151.6     367.9     197.4     184.1     145.8     123.7      89.7    0.000     0.000     0.000     0.000     0.000    0.90     0.00    0.00      0   -9.90   -9.00        8.8        9.5        9.4       15.2       21.2       22.0       22.0       22.0       22.0       22.0       22.0       22.0        0.0        0.0        0.0        0.0        0.0        0.0        0.0        0.0        0.0        0.0        0.0        0.0      0.0       5.7      15.6      24.1      32.5    362.74
     7     3  1996    46     3     264.2     0.0     52.0    0.0   52.0    0.0      0.0      0.0   -9.90      1.8      1.8    100      4.3      4.3   100      6.1     6.1     100     15.0    0.91      0      0      0      0      0    56.4    56.4      0     0.78      4.3      4.3      4.3   100    17.7     1.870     4.4    0.082    1.632      86        0.09    0.000    0.000     264.2    220.2    0.91   199.9     372.2     199.7     185.4     146.9     124.7      90.8    0.000     0.000     0.000     0.000     0.000    0.91     0.00    0.00      0   -9.90   -9.00       35.0       29.4        9.4       15.2       21.2       22.0       22.0       22.0       22.0       22.0       22.0       22.0        0.0        0.0        0.0        0.0        0.0        0.0        0.0        0.0        0.0        0.0        0.0        0.0      0.0       5.5      16.0      24.6      33.2    362.74
     8     3  1996    47     3     257.6     0.0      0.0    0.0    0.0    0.0      0.0      0.0   -9.90      1.8      1.8    100      4.8      4.8   100      6.6     6.6     100     15.0    0.92      0      0      0      0      0    58.6    58.6      0     0.80      4.8      4.8      4.8   100    17.7     2.011     5.0    0.100    1.996      87        0.10    0.000    0.000     257.6    213.6    0.92   195.7     376.5     202.0     189.6     150.2     127.4      91.8    0.000     0.000     0.000     0.000     0.000    0.92     0.00    0.00      0   -9.90   -9.00       15.8       22.4       22.4       21.8       21.2       22.0       22.0       22.0       22.0       22.0       22.0       22.0        0.0        0.0        0.0        0.0        0.0        0.0        0.0        0.0        0.0        0.0        0.0        0.0      0.0       6.0      16.0      24.9      33.8    362.74
     9     3  1996    48     3     251.5     0.0      0.0    0.0    0.0    0.0      0.0      0.0   -9.90      1.6      1.6    100      4.6      4.6   100      6.2     6.2     100     15.8    0.93      0      0      0      0      0    60.5    60.5      0     0.81      4.6      4.6      4.6   100    17.7     2.155     5.6    0.121    2.430      87        0.11    0.000    0.000     251.5    207.5    0.93   191.8     380.8     204.3     190.1     150.6     127.8      92.9    0.000     0.000     0.000     0.000     0.000    0.93     0.00    0.00      0   -9.90   -9.00        9.6       22.0       22.0       22.0       21.7       22.0       22.0       22.0       22.0       22.0       22.0       22.0        0.0        0.0        0.0        0.0        0.0        0.0        0.0        0.0        0.0        0.0        0.0        0.0      0.0       5.6      17.6      26.2      34.8    362.74
    10     3  1996    49     3     245.3     0.0      0.0    0.0    0.0    0.0      0.0      0.0   -9.90      1.5      1.5    100      4.6      4.6   100      6.2     6.2     100     15.8    0.94      0      0      0      0      0    62.1    62.1      0     0.83      4.6      4.6      4.6   100    17.7     2.302     6.4    0.147    2.943      88        0.13    0.000    0.000     245.3    201.3    0.94   187.9     385.1     206.6     192.3     152.3     129.3      93.9    0.000     0.000     0.000     0.000     0.000    0.94     0.00    0.00      0   -9.90   -9.00        8.1       17.4       22.0       22.0       21.8       22.0       22.0       22.0       22.0       22.0       22.0       22.0        0.0        0.0        0.0        0.0        0.0        0.0        0.0        0.0        0.0        0.0        0.0        0.0      0.0       5.6      17.5      26.5      35.5    362.74
    11     3  1996    50     3     239.5     0.0      0.0    0.0    0.0    0.0      0.0      0.0   -9.90      1.6      0.4     27      5.3      5.3   100      6.9     5.8      83     16.5    0.95      3      0      0      0      0    63.6    63.6      0     0.84      5.3      5.3      5.3   100    17.7     2.451     7.2    0.177    3.547      88        0.15    0.000    0.000     239.5    195.5    0.95   184.4     389.3     208.9     197.4     156.3     132.5      94.9    0.000     0.000     0.000     0.000     0.000    0.95     0.00    0.00      0   -9.90   -9.00        7.7       12.7       21.3       22.0       21.8       22.0       22.0       22.0       22.0       22.0       22.0       22.0        0.0        0.0        0.0        0.0        0.0        0.0        0.0        0.0        0.0        0.0        0.0        0.0      0.0       6.3      19.0      27.0      35.0    362.74
    12     3  1996    51     3     234.2     0.0      0.0    0.0    0.0    0.0      0.0      0.0   -9.90      1.5      0.1      6      5.2      5.2   100      6.7     5.3      79     16.5    0.96      6      0      0      0      0    64.8    64.8      0     0.85      5.2      5.2      5.2   100    17.7     2.602     8.2    0.213    4.254      89        0.17    0.000    0.000     234.2    190.2    0.96   181.4     393.5     211.1     198.6     157.3     133.4      96.0    0.000     0.000     0.000     0.000     0.000    0.96     0.00    0.00      0   -9.90   -9.00        7.6        9.2       19.6       22.0       21.8       22.0       22.0       22.0       22.0       22.0       22.0       22.0        0.0        0.0        0.0        0.0        0.0        0.0        0.0        0.0        0.0        0.0        0.0        0.0      0.0       6.1      19.0      27.2      35.5    362.74
    13     3  1996    52     3     228.6     0.0      0.0    0.0    0.0    0.0      0.0      0.0   -9.90      1.5      0.1      3      5.6      5.6   100      7.2     5.7      79     17.4    0.97     12      0      0      0      0    65.8    65.8      0     0.86      5.6      5.6      5.6   100    17.7     2.755     9.2    0.254    5.077      89        0.20    0.000    0.000     228.6    184.6    0.97   178.0     397.7     213.4     202.5     160.4     135.9      97.0    0.000     0.000     0.000     0.000     0.000    0.97     0.00    0.00      0   -9.90   -9.00        7.5        9.2       15.5       20.6       21.8       22.0       22.0       22.0       22.0       22.0       22.0       22.0        0.0        0.0        0.0        0.0        0.0        0.0        0.0        0.0        0.0        0.0        0.0        0.0      0.0       6.5      20.7      28.8      36.8    362.74
    14     3  1996    53     3     223.1     0.0      0.0    0.0    0.0    0.0      0.0      0.0   -9.90      1.4      0.0      3      5.4      5.4   100      6.8     5.4      80     17.0    0.98     17      0      0      0      0    66.7    66.7      0     0.87      5.4      5.4      5.4   100    17.7     2.909    10.4    0.301    6.029      89        0.22    0.000    0.000     223.1    179.1    0.98   174.7     401.8     215.6     203.2     161.0     136.5      98.0    0.000     0.000     0.000     0.000     0.000    0.98     0.00    0.00      0   -9.90   -9.00        7.5        9.2       11.4       19.2       21.8       22.0       22.0       22.0       22.0       22.0       22.0       22.0        0.0        0.0        0.0        0.0        0.0        0.0        0.0        0.0        0.0        0.0        0.0        0.0      0.0       6.2      20.0      28.8      37.5    362.74
    15     3  1996    54     3     217.6     0.0      0.0    0.0    0.0    0.0      0.0      0.0   -9.90      1.4      0.0      3      5.5      5.5   100      6.9     5.6      80     17.5    0.99     25      0      0      0      0    67.4    67.4      0     0.88      5.5      5.5      5.5   100    17.7     3.064    11.6    0.356    7.123      90        0.25    0.000    0.000     217.6    173.6    0.99   171.4     405.9     217.8     205.8     163.0     138.2      99.0    0.000     0.000     0.000     0.000     0.000    0.99     0.00    0.00      0   -9.90   -9.00        7.4        9.2        9.3       15.8       21.8       22.0       22.0       22.0       22.0       22.0       22.0       22.0        0.0        0.0        0.0        0.0        0.0        0.0        0.0        0.0        0.0        0.0        0.0        0.0      0.0       6.3      21.0      29.0      37.0    362.74
    16     3  1996    55     3     261.7     0.0     53.4    0.0   53.4    0.0      0.0      0.0   -9.90      1.8      1.8    100      7.4      7.4   100      9.2     9.2     100     16.8    1.00      0      0      0      0      0    68.3    68.3      0     0.88      7.4      7.4      7.4   100    17.7     3.220    12.9    0.417    8.335      90        0.28    0.000    0.000     261.7    217.7    1.00   217.7     410.0     220.0     217.3     172.1     145.3     100.0    0.000     0.000     0.000     0.000     0.000    1.00     0.00    0.00      0   -9.90   -9.00       34.0       26.7        9.3       15.8       21.8       22.0       22.0       22.0       22.0       22.0       22.0       22.0        0.0        0.0        0.0        0.0        0.0        0.0        0.0        0.0        0.0        0.0        0.0        0.0      0.0       8.4      19.5      28.5      37.5    362.74
    17     3  1996    56     3     253.8     0.0      0.0    0.0    0.0    0.0      0.0      0.0   -9.90      1.5      1.5    100      6.4      6.4   100      7.9     7.9     100     16.8    1.00      0      0      0      0      0    69.1    69.1      0     0.89      6.4      6.4      6.4   100    17.7     3.378    14.3    0.482    9.633      90        0.30    0.000    0.000     253.8    209.8    1.00   209.8     410.0     220.0     211.9     167.8     142.0     100.0    0.000     0.000     0.000     0.000     0.000    1.00     0.00    0.00      0   -9.90   -9.00       15.8       21.2       22.2       18.8       21.8       22.0       22.0       22.0       22.0       22.0       22.0       22.0        0.0        0.0        0.0        0.0        0.0        0.0        0.0        0.0        0.0        0.0        0.0        0.0      0.0       7.2      19.5      28.0      36.5    362.74
    18     3  1996    57     3     244.9     0.0      0.0    0.0    0.0    0.0      0.0      0.0   -9.90      1.7      1.7    100      7.3      7.3   100      8.9     8.9     100     15.8    1.00      2      0      0      0      0    69.7    69.7      0     0.90      7.3      7.3      7.3   100    17.7     3.537    15.6    0.551   11.017      91        0.33    0.000    0.000     244.9    200.9    1.00   200.9     410.0     220.0     215.9     171.0     144.5     100.0    0.000     0.000     0.000     0.000     0.000    1.00     0.00    0.00      0   -9.90   -9.00        9.6       18.4       22.0       19.0       21.8       22.0       22.0       22.0       22.0       22.0       22.0       22.0        0.0        0.0        0.0        0.0        0.0        0.0        0.0        0.0        0.0        0.0        0.0        0.0      0.0       8.1      17.5      27.2      37.0    362.74
    19     3  1996    58     3     238.8     0.0      0.0    0.0    0.0    0.0      0.0      0.0   -9.90      1.1      1.1    100      5.0      5.0   100      6.0     6.0     100     15.6    1.00      1      0      0      0      0    70.3    70.3      0     0.90      5.0      5.0      5.0   100    17.7     3.696    16.9    0.624   12.487      91        0.36    0.000    0.000     238.8    194.8    1.00   194.8     410.0     220.0     204.2     161.8     137.4     100.0    0.000     0.000     0.000     0.000     0.000    1.00     0.00    0.00      0   -9.90   -9.00        8.5       13.7       21.7       19.0       21.8       22.0       22.0       22.0       22.0       22.0       22.0       22.0        0.0        0.0        0.0        0.0        0.0        0.0        0.0        0.0        0.0        0.0        0.0        0.0      0.0       5.5      17.2      26.1      35.0    362.74
    20     3  1996    59     3     234.0     0.0      0.0    0.0    0.0    0.0      0.0      0.0   -9.90      0.9      0.9    100      4.0      4.0   100      4.8     4.8     100     16.8    1.00      2      0      0      0      0    70.8    70.8      0     0.91      4.0      4.0      4.0   100    17.7     3.856    18.2    0.702   14.044      91        0.39    0.000    0.000     234.0    190.0    1.00   190.0     410.0     220.0     199.3     157.9     134.4     100.0    0.000     0.000     0.000     0.000     0.000    1.00     0.00    0.00      0   -9.90   -9.00        7.7        9.7       21.7       19.0       21.8       22.0       22.0       22.0       22.0       22.0       22.0       22.0        0.0        0.0        0.0        0.0        0.0        0.0        0.0        0.0        0.0        0.0        0.0        0.0      0.0       4.4      19.5      26.5      33.5    362.74
    21     3  1996    60     3     227.8     0.0      0.0    0.0    0.0    0.0      0.0      0.0   -9.90      1.3      0.1     10      6.0      6.0   100      7.3     6.1      84     18.2    1.00     11      0      0      0      0    71.2    71.2      0     0.91      6.0      6.0      6.0   100    17.7     4.017    19.5    0.784   15.688      92        0.43    0.000    0.000     227.8    183.8    1.00   183.8     410.0     220.0     209.2     165.7     140.4     100.0    0.000     0.000     0.000     0.000     0.000    1.00     0.00    0.00      0   -9.90   -9.00        7.6        9.7       17.5       17.2       21.8       22.0       22.0       22.0       22.0       22.0       22.0       22.0        0.0        0.0        0.0        0.0        0.0        0.0        0.0        0.0        0.0        0.0        0.0        0.0      0.0       6.6      22.5      29.8      37.0    362.74
    22     3  1996    61     3     221.1     0.0      0.0    0.0    0.0    0.0      0.0      0.0   -9.90      1.4      0.1      4      6.7      6.7   100      8.1     6.8      83     17.2    1.00     24      0      0      0      0    71.6    71.6      0     0.91      6.7      6.7      6.7   100    17.7     4.178    20.8    0.871   17.419      92        0.46    0.000    0.000     221.1    177.1    1.00   177.1     410.0     220.0     212.8     168.5     142.5     100.0    0.000     0.000     0.000     0.000     0.000    1.00     0.00    0.00      0   -9.90   -9.00        7.5        9.7       13.3       14.7       21.8       22.0       22.0       22.0       22.0       22.0       22.0       22.0        0.0        0.0        0.0        0.0        0.0        0.0        0.0        0.0        0.0        0.0        0.0        0.0      0.0       7.4      20.5      28.8      37.0    362.74
    23     3  1996    62     3     264.7     0.0     51.1    0.0   51.1    0.0      0.0      0.0   -9.90      1.3      1.3    100      6.2      6.2   100      7.5     7.5     100     16.9    1.00      0      0      0      0      0    72.0    72.0      0     0.91      6.2      6.2      6.2   100    17.7     4.340    22.2    0.962   19.237      92        0.49    0.000    0.000     264.7    220.7    1.00   220.7     410.0     220.0     210.1     166.4     140.9     100.0    0.000     0.000     0.000     0.000     0.000    1.00     0.00    0.00      0   -9.90   -9.00       34.6       26.3       13.3       14.7       21.8       22.0       22.0       22.0       22.0       22.0       22.0       22.0        0.0        0.0        0.0        0.0        0.0        0.0        0.0        0.0        0.0        0.0        0.0        0.0      0.0       6.8      19.8      28.4      37.0    362.74
    24     3  1996    63     3     257.6     0.0      0.0    0.0    0.0    0.0      0.0      0.0   -9.90      1.2      1.2    100      5.9      5.9   100      7.0     7.0     100     17.3    1.00      0      0      0      0      0    72.3    72.3      0     0.92      5.9      5.9      5.9   100    17.7     4.502    23.5    1.057   21.143      92        0.51    0.000    0.000     257.6    213.6    1.00   213.6     410.0     220.0     208.3     165.0     139.8     100.0    0.000     0.000     0.000     0.000     0.000    1.00     0.00    0.00      0   -9.90   -9.00       16.1       21.7       22.4       21.6       21.8       22.0       22.0       22.0       22.0       22.0       22.0       22.0        0.0        0.0        0.0        0.0        0.0        0.0        0.0        0.0        0.0        0.0        0.0        0.0      0.0       6.4      20.6      29.3      38.0    362.74
    25     3  1996    64     3     251.8     0.0      0.0    0.0    0.0    0.0      0.0      0.0   -9.90      1.0      1.0    100      4.9      4.9   100      5.8     5.8     100     17.2    1.00      0      0      0      0      0    72.6    72.6      0     0.92      4.9      4.9      4.9   100    17.7     4.665    24.8    1.157   23.137      93        0.55    0.000    0.000     251.8    207.8    1.00   207.8     410.0     220.0     203.3     161.1     136.8     100.0    0.000     0.000     0.000     0.000     0.000    1.00     0.00    0.00      0   -9.90   -9.00       10.3       21.7       22.0       22.0       21.8       22.0       22.0       22.0       22.0       22.0       22.0       22.0        0.0        0.0        0.0        0.0        0.0        0.0        0.0        0.0        0.0        0.0        0.0        0.0      0.0       5.3      20.5      29.0      37.5    362.74
    26     3  1996    65     3     244.4     0.0      0.0    0.0    0.0    0.0      0.0      0.0   -9.90      1.2      1.2    100      6.2      6.2   100      7.4     7.4     100     17.8    1.00      1      0      0      0      0    72.9    72.9      0     0.92      6.2      6.2      6.2   100    17.7     4.828    26.1    1.261   25.218      93        0.58    0.000    0.000     244.4    200.4    1.00   200.4     410.0     220.0     209.6     166.0     140.6     100.0    0.000     0.000     0.000     0.000     0.000    1.00     0.00    0.00      0   -9.90   -9.00        9.1       17.0       20.5       22.0       21.8       22.0       22.0       22.0       22.0       22.0       22.0       22.0        0.0        0.0        0.0        0.0        0.0        0.0        0.0        0.0        0.0        0.0        0.0        0.0      0.0       6.7      21.5      30.2      39.0    362.74
    27     3  1996    66     3     236.3     0.0      0.0    0.0    0.0    0.0      0.0      0.0   -9.90      1.3      1.3    100      6.8      6.8   100      8.1     8.1     100     18.0    1.00      6      0      0      0      0    73.1    73.1      0     0.92      6.8      6.8      6.8   100    17.7     4.992    27.4    1.369   27.387      93        0.60    0.000    0.000     236.3    192.3    1.00   192.3     410.0     220.0     212.8     168.5     142.5     100.0    0.000     0.000     0.000     0.000     0.000    1.00     0.00    0.00      0   -9.90   -9.00        7.8       12.3       18.3       22.0       21.8       22.0       22.0       22.0       22.0       22.0       22.0       22.0        0.0        0.0        0.0        0.0        0.0        0.0        0.0        0.0        0.0        0.0        0.0        0.0      0.0       7.4      22.0      30.8      39.5    362.74
    28     3  1996    67     3     228.3     0.0      0.0    0.0    0.0    0.0      0.0      0.0   -9.90      1.3      1.1     88      6.8      6.8   100      8.1     8.0      98     17.0    1.00     12      0      0      0      0    73.3    73.3      0     0.93      6.8      6.8      6.8   100    17.7     5.156    28.7    1.482   29.644      93        0.63    0.000    0.000     228.3    184.3    1.00   184.3     410.0     220.0     212.8     168.5     142.5     100.0    0.000     0.000     0.000     0.000     0.000    1.00     0.00    0.00      0   -9.90   -9.00        6.6        9.2       14.7       22.0       21.8       22.0       22.0       22.0       22.0       22.0       22.0       22.0        0.0        0.0        0.0        0.0        0.0        0.0        0.0        0.0        0.0        0.0        0.0        0.0      0.0       7.4      20.0      29.5      39.0    362.74
    29     3  1996    68     3     221.8     0.0      0.0    0.0    0.0    0.0      0.0      0.0   -9.90      1.2      0.0      3      6.5      6.5   100      7.7     6.5      85     18.0    1.00     21      0      0      0      0    73.4    73.4      0     0.93      6.5      6.5      6.5   100    17.7     5.320    30.1    1.599   31.988      93        0.66    0.000    0.000     221.8    177.8    1.00   177.8     410.0     220.0     211.0     167.1     141.5     100.0    0.000     0.000     0.000     0.000     0.000    1.00     0.00    0.00      0   -9.90   -9.00        6.6        9.2       10.8       19.4       21.8       22.0       22.0       22.0       22.0       22.0       22.0       22.0        0.0        0.0        0.0        0.0        0.0        0.0        0.0        0.0        0.0        0.0        0.0        0.0      0.0       7.0      22.0      30.5      39.0    362.74
    30     3  1996    69     3     264.0     0.0     49.9    0.0   49.9    0.0      0.0      0.0   -9.90      1.2      1.2    100      6.5      6.5   100      7.7     7.7     100     19.5    1.00      0      0      0      0      0    74.3    74.3      0     0.93      6.5      6.5      6.5   100    17.7     5.485    31.4    1.721   34.426      93        0.69    0.000    0.000     264.0    220.0    1.00   220.0     410.0     220.0     211.0     167.1     141.5     100.0    0.000     0.000     0.000     0.000     0.000    1.00     0.00    0.00      0   -9.90   -9.00       34.7       23.3       10.8       19.4       21.8       22.0       22.0       22.0       22.0       22.0       22.0       22.0        0.0        0.0        0.0        0.0        0.0        0.0        0.0        0.0        0.0        0.0        0.0        0.0      0.0       7.0      25.0      32.2      39.5    362.74
    31     3  1996    70     3     256.5     0.0      0.0    0.0    0.0    0.0      0.0      0.0   -9.90      1.1      1.1    100      6.3      6.3   100      7.5     7.5     100     19.6    1.00     -9      0      0      0      0    74.4    74.4      0     0.93      6.3      6.3      6.3   100    17.7     5.650    32.7    1.848   36.951      94        0.72    0.000    0.000     256.5    212.5    1.00   212.5     410.0     220.0     210.1     166.4     140.9     100.0    0.000     0.000     0.000     0.000     0.000    1.00     0.00    0.00      0   -9.90   -9.00       16.1       21.2       22.2       21.2       21.8       22.0       22.0       22.0       22.0       22.0       22.0       22.0        0.0        0.0        0.0        0.0        0.0        0.0        0.0        0.0        0.0        0.0        0.0        0.0      0.0       6.8      25.2      32.1      39.0    362.74
     1     4  1996    71     3     249.3     0.0      0.0    0.0    0.0    0.0      0.0      0.0   -9.90      1.1      1.1    100      6.2      6.2   100      7.2     7.2     100     17.2    1.00     -9      0      0      0      0    74.4    74.4      0     0.93      6.2      6.2      6.2   100    17.7     5.815    34.0    1.978   39.563      94        0.75    0.000    0.000     249.3    205.3    1.00   205.3     410.0     220.0     209.2     165.7     140.4     100.0    0.000     0.000     0.000     0.000     0.000    1.00     0.00    0.00      0   -9.90   -9.00       10.1       19.9       22.0       21.3       21.8       22.0       22.0       22.0       22.0       22.0       22.0       22.0        0.0        0.0        0.0        0.0        0.0        0.0        0.0        0.0        0.0        0.0        0.0        0.0      0.0       6.6      20.5      29.2      38.0    362.74
     2     4  1996    72     3     242.1     0.0      0.0    0.0    0.0    0.0      0.0      0.0   -9.90      1.1      1.1    100      6.1      6.1   100      7.1     7.1     100     17.5    1.00     -9      0      0      0      0    74.5    74.5      0     0.93      6.1      6.1      6.1   100    17.7     5.980    35.3    2.113   42.261      94        0.78    0.000    0.000     242.1    198.1    1.00   198.1     410.0     220.0     208.7     165.3     140.1     100.0    0.000     0.000     0.000     0.000     0.000    1.00     0.00    0.00      0   -9.90   -9.00        9.1       15.3       20.6       21.3       21.8       22.0       22.0       22.0       22.0       22.0       22.0       22.0        0.0        0.0        0.0        0.0        0.0        0.0        0.0        0.0        0.0        0.0        0.0        0.0      0.0       6.5      21.0      29.0      37.0    362.74
     3     4  1996    73     3     235.0     0.0      0.0    0.0    0.0    0.0      0.0      0.0   -9.90      1.1      1.1    100      6.1      6.1   100      7.1     7.1     100     17.8    1.00     -9      0      0      0      0    74.6    74.6      0     0.93      6.1      6.1      6.1   100    17.7     6.145    36.7    2.252   45.045      94        0.81    0.000    0.000     235.0    191.0    1.00   191.0     410.0     220.0     208.7     165.3     140.1     100.0    0.000     0.000     0.000     0.000     0.000    1.00     0.00    0.00      0   -9.90   -9.00        8.0       10.8       19.0       21.3       21.8       22.0       22.0       22.0       22.0       22.0       22.0       22.0        0.0        0.0        0.0        0.0        0.0        0.0        0.0        0.0        0.0        0.0        0.0        0.0      0.0       6.5      21.5      29.2      37.0    362.74
     4     4  1996    74     3     226.4     0.0      0.0    0.0    0.0    0.0      0.0      0.0   -9.90      1.3      1.3    100      7.4      7.4   100      8.7     8.7     100     18.0    1.00     -9      0      0      0      0    74.6    74.6      0     0.93      7.4      7.4      7.4   100    17.7     6.310    38.0    2.396   47.916      94        0.84    0.000    0.000     226.4    182.4    1.00   182.4     410.0     220.0     215.0     170.3     143.9     100.0    0.000     0.000     0.000     0.000     0.000    1.00     0.00    0.00      0   -9.90   -9.00        6.7        9.4       14.8       19.6       21.8       22.0       22.0       22.0       22.0       22.0       22.0       22.0        0.0        0.0        0.0        0.0        0.0        0.0        0.0        0.0        0.0        0.0        0.0        0.0      0.0       7.9      22.0      29.0      36.0    362.74
     5     4  1996    75     3     264.4     0.0     46.3    0.0   46.3    0.0      0.0      0.0   -9.90      1.2      1.2    100      7.0      7.0   100      8.2     8.2     100     19.0    1.00     -9      0      0      0      0    74.7    74.7      0     0.93      7.0      7.0      7.0   100    17.7     6.474    39.3    2.544   50.872      94        0.86    0.000    0.000     264.4    220.4    1.00   220.4     410.0     220.0     213.2     168.9     142.8     100.0    0.000     0.000     0.000     0.000     0.000    1.00     0.00    0.00      0   -9.90   -9.00       34.6       19.6       14.8       19.6       21.8       22.0       22.0       22.0       22.0       22.0       22.0       22.0        0.0        0.0        0.0        0.0        0.0        0.0        0.0        0.0        0.0        0.0        0.0        0.0      0.0       7.5      24.0      30.0      36.0    362.74
     6     4  1996    76     3     255.3     0.0      0.0    0.0    0.0    0.0      0.0      0.0   -9.90      1.4      1.4    100      7.8      7.8   100      9.2     9.2     100     18.9    1.00     -9      0      0      0      0    74.7    74.7      0     0.93      7.8      7.8      7.8   100    17.7     6.639    40.6    2.696   53.915      95        0.89    0.000    0.000     255.3    211.3    1.00   211.3     410.0     220.0     217.3     172.1     145.3     100.0    0.000     0.000     0.000     0.000     0.000    1.00     0.00    0.00      0   -9.90   -9.00       15.9       19.8       22.2       21.6       21.8       22.0       22.0       22.0       22.0       22.0       22.0       22.0        0.0        0.0        0.0        0.0        0.0        0.0        0.0        0.0        0.0        0.0        0.0        0.0      0.0       8.4      23.8      29.9      36.0    362.74
     7     4  1996    77     4     249.1     0.0      0.0    0.0    0.0    0.0      0.0      0.0   -9.90      0.9      0.9    100      5.2      5.2   100      6.1     6.1     100     17.3    1.00     -9      0      0      0      0    74.7    74.7      0     0.93      5.2      5.2      5.2   100    17.7     6.803    41.9    2.852   57.043      95        0.92    0.000    0.000     249.1    205.1    1.00   205.1     410.0     220.0     204.7     162.1     137.6     100.0    0.000     0.000     0.000     0.000     0.000    1.00     0.00    0.00      0   -9.90   -9.00       10.0       19.5       22.0       21.7       21.8       22.0       22.0       22.0       22.0       22.0       22.0       22.0        0.0        0.0        0.0        0.0        0.0        0.0        0.0        0.0        0.0        0.0        0.0        0.0      0.0       5.6      20.6      27.8      35.0    362.74
     8     4  1996    78     4     241.4     0.0      0.0    0.0    0.0    0.0      0.0      0.0   -9.90      1.2      1.2    100      6.6      6.6   100      7.7     7.7     100     17.2    1.00     -9      0      0      0      0    74.8    74.8      0     0.93      6.6      6.6      6.6   100    17.7     6.968    43.2    3.013   60.257      95        0.95    0.000    0.000     241.4    197.4    1.00   197.4     410.0     220.0     211.4     167.5     141.7     100.0    0.000     0.000     0.000     0.000     0.000    1.00     0.00    0.00      0   -9.90   -9.00        8.9       14.8       20.1       21.7       21.8       22.0       22.0       22.0       22.0       22.0       22.0       22.0        0.0        0.0        0.0        0.0        0.0        0.0        0.0        0.0        0.0        0.0        0.0        0.0      0.0       7.1      20.5      28.2      36.0    362.74
     9     4  1996    79     4     234.9     0.0      0.0    0.0    0.0    0.0      0.0      0.0   -9.90      1.0      1.0    100      5.6      5.6   100      6.5     6.5     100     18.8    1.00     -9      0      0      0      0    74.8    74.8      0     0.93      5.6      5.6      5.6   100    17.7     7.132    44.6    3.178   63.556      95        0.98    0.000    0.000     234.9    190.9    1.00   190.9     410.0     220.0     206.5     163.6     138.7     100.0    0.000     0.000     0.000     0.000     0.000    1.00     0.00    0.00      0   -9.90   -9.00        7.9       10.4       18.9       21.7       21.8       22.0       22.0       22.0       22.0       22.0       22.0       22.0        0.0        0.0        0.0        0.0        0.0        0.0        0.0        0.0        0.0        0.0        0.0        0.0      0.0       6.0      23.5      30.8      38.0    362.74
    10     4  1996    80     4     243.3    15.4      0.0    0.0   15.4    0.0      0.0      0.0   -9.90      1.0      1.0    100      5.9      5.9   100      7.0     7.0     100     17.8    1.00     -9      0      0      0      0    74.8    74.8      0     0.93      5.9      5.9      5.9   100    17.7     7.296    45.9    3.347   66.940      95        1.01    0.000    0.000     243.3    199.3    1.00   199.3     410.0     220.0     208.3     165.0     139.8     100.0    0.000     0.000     0.000     0.000     0.000    1.00     0.00    0.00      0   -9.90   -9.00       17.1        9.6       18.9       21.7       21.8       22.0       22.0       22.0       22.0       22.0       22.0       22.0        0.0        0.0        0.0        0.0        0.0        0.0        0.0        0.0        0.0        0.0        0.0        0.0     15.4       6.4      21.5      29.5      37.5    362.74
    11     4  1996    81     4     237.7     0.3      0.0    0.0    0.3    0.0      0.0      0.0   -9.90      0.9      0.6     59      5.4      5.4   100      6.3     5.9      94     17.5    1.00     -9      0      0      0      0    74.8    74.8      0     0.93      5.4      5.4      5.4   100    17.7     7.460    47.2    3.520   70.410      95        1.04    0.000    0.000     237.7    193.7    1.00   193.7     410.0     220.0     205.6     162.8     138.2     100.0    0.000     0.000     0.000     0.000     0.000    1.00     0.00    0.00      0   -9.90   -9.00       11.7        9.6       18.7       21.7       21.8       22.0       22.0       22.0       22.0       22.0       22.0       22.0        0.0        0.0        0.0        0.0        0.0        0.0        0.0        0.0        0.0        0.0        0.0        0.0      0.3       5.8      21.0      28.0      35.0    362.74
    12     4  1996    82     4     234.9     4.3      0.0    0.0    4.3    0.0      0.0      0.0   -9.90      1.1      1.1    100      6.0      6.0   100      7.1     7.1     100     17.2    1.00     -9      0      0      0      0    74.9    74.9      0     0.93      6.0      6.0      6.0   100    17.7     7.624    48.5    3.698   73.965      95        1.07    0.000    0.000     234.9    190.9    1.00   190.9     410.0     220.0     208.7     165.3     140.1     100.0    0.000     0.000     0.000     0.000     0.000    1.00     0.00    0.00      0   -9.90   -9.00       10.1        9.6       17.6       21.7       21.8       22.0       22.0       22.0       22.0       22.0       22.0       22.0        0.0        0.0        0.0        0.0        0.0        0.0        0.0        0.0        0.0        0.0        0.0        0.0      4.3       6.5      20.5      27.8      35.0    362.74
    13     4  1996    83     4     228.5     0.0      0.0    0.0    0.0    0.0      0.0      0.0   -9.90      1.0      1.0    100      5.5      5.5   100      6.4     6.4     100     17.9    1.00     -9      0      0      0      0    74.9    74.9      0     0.93      5.5      5.5      5.5   100    17.7     7.787    49.8    3.880   77.604      95        1.11    0.000    0.000     228.5    184.5    1.00   184.5     410.0     220.0     206.0     163.2     138.5     100.0    0.000     0.000     0.000     0.000     0.000    1.00     0.00    0.00      0   -9.90   -9.00        9.1        9.6       13.4       20.5       21.8       22.0       22.0       22.0       22.0       22.0       22.0       22.0        0.0        0.0        0.0        0.0        0.0        0.0        0.0        0.0        0.0        0.0        0.0        0.0      0.0       5.9      21.8      27.9      34.0    362.74
    14     4  1996    84     4     239.6    18.4      0.0    0.0   18.4    0.0      0.0      0.0   -9.90      1.1      1.1    100      6.2      6.2   100      7.3     7.3     100     16.3    1.00     -9      0      0      0      0    74.9    74.9      0     0.92      6.2      6.2      6.2   100    17.7     7.951    51.1    4.066   81.328      95        1.14    0.000    0.000     239.6    195.6    1.00   195.6     410.0     220.0     209.6     166.0     140.6     100.0    0.000     0.000     0.000     0.000     0.000    1.00     0.00    0.00      0   -9.90   -9.00       21.3        9.6       12.3       20.5       21.8       22.0       22.0       22.0       22.0       22.0       22.0       22.0        0.0        0.0        0.0        0.0        0.0        0.0        0.0        0.0        0.0        0.0        0.0        0.0     18.4       6.7      18.6      26.1      33.5    362.74
    15     4  1996    85     4     236.2     0.4      0.0    0.0    0.4    0.0      0.0      0.0   -9.90      0.6      0.6    100      3.2      3.2   100      3.8     3.8     100     16.8    1.00     -9      0      0      0      0    74.9    74.9      0     0.92      3.2      3.2      3.2   100    17.7     8.114    52.5    4.257   85.137      96        1.18    0.000    0.000     236.2    192.2    1.00   192.2     410.0     220.0     195.3     154.7     131.9     100.0    0.000     0.000     0.000     0.000     0.000    1.00     0.00    0.00      0   -9.90   -9.00       17.9        9.6       12.3       20.5       21.8       22.0       22.0       22.0       22.0       22.0       22.0       22.0        0.0        0.0        0.0        0.0        0.0        0.0        0.0        0.0        0.0        0.0        0.0        0.0      0.4       3.5      19.6      24.3      29.0    362.74
    16     4  1996    86     4     229.8     0.0      0.0    0.0    0.0    0.0      0.0      0.0   -9.90      1.0      0.5     46      5.9      5.9   100      6.9     6.4      92     17.2    1.00     -9      0      0      0      0    74.9    74.9      0     0.92      5.9      5.9      5.9   100    17.7     8.277    53.8    4.451   89.030      96        1.21    0.000    0.000     229.8    185.8    1.00   185.8     410.0     220.0     208.3     165.0     139.8     100.0    0.000     0.000     0.000     0.000     0.000    1.00     0.00    0.00      0   -9.90   -9.00       12.3        9.6       11.6       20.5       21.8       22.0       22.0       22.0       22.0       22.0       22.0       22.0        0.0        0.0        0.0        0.0        0.0        0.0        0.0        0.0        0.0        0.0        0.0        0.0      0.0       6.4      20.5      26.8      33.0    362.74
    17     4  1996    87     4     224.0     0.0      0.0    0.0    0.0    0.0      0.0      0.0   -9.90      1.0      0.1     13      5.7      5.7   100      6.7     5.8      87     17.8    1.00     -9      0      0      0      0    74.9    74.9      0     0.92      5.7      5.7      5.7   100    17.7     8.440    55.1    4.650   93.007      96        1.24    0.000    0.000     224.0    180.0    1.00   180.0     410.0     220.0     207.4     164.3     139.3     100.0    0.000     0.000     0.000     0.000     0.000    1.00     0.00    0.00      0   -9.90   -9.00        8.7        9.6        9.3       20.5       21.8       22.0       22.0       22.0       22.0       22.0       22.0       22.0        0.0        0.0        0.0        0.0        0.0        0.0        0.0        0.0        0.0        0.0        0.0        0.0      0.0       6.2      21.5      28.0      34.5    362.74
[...]
    19     4  1996    89     4     264.7     0.0     54.5    0.0   54.5    0.0      0.0      0.0   -9.90      1.1      1.1    100      6.1      6.1   100      7.1     7.1     100     18.9    1.00     -9      0      0      0      0    74.9    74.9      0     0.92      6.1      6.1      6.1   100    17.7     8.766    57.7    5.061  101.214      96        1.31    0.000    0.000     264.7    220.7    1.00   220.7     410.0     220.0     209.2     165.7     140.4     100.0    0.000     0.000     0.000     0.000     0.000    1.00     0.00    0.00      0   -9.90   -9.00       34.8       30.9        9.3       16.8       18.9       22.0       22.0       22.0       22.0       22.0       22.0       22.0        0.0        0.0        0.0        0.0        0.0        0.0        0.0        0.0        0.0        0.0        0.0        0.0      0.0       6.6      23.7      30.1      36.5    362.74
    20     4  1996    90     4     257.7     0.0      0.0    0.0    0.0    0.0      0.0      0.0   -9.90      1.0      1.0    100      5.9      5.9   100      6.9     6.9     100     19.2    1.00     -9      0      0      0      0    74.9    74.9      0     0.92      5.9      5.9      5.9   100    17.7     8.929    59.0    5.272  105.444      96        1.34    0.000    0.000     257.7    213.7    1.00   213.7     410.0     220.0     208.3     165.0     139.8     100.0    0.000     0.000     0.000     0.000     0.000    1.00     0.00    0.00      0   -9.90   -9.00       16.2       21.7       22.4       22.2       21.2       22.0       22.0       22.0       22.0       22.0       22.0       22.0        0.0        0.0        0.0        0.0        0.0        0.0        0.0        0.0        0.0        0.0        0.0        0.0      0.0       6.4      24.5      30.8      37.0    362.74
    21     4  1996    91     4     251.4     1.6      0.0    0.0    1.6    0.0      0.0      0.0   -9.90      1.2      1.2    100      6.8      6.8   100      8.0     8.0     100     19.5    1.00     -9      0      0      0      0    75.0    75.0      0     0.92      6.8      6.8      6.8   100    17.7     9.091    60.4    5.488  109.757      96        1.36    0.000    0.000     251.4    207.4    1.00   207.4     410.0     220.0     212.8     168.5     142.5     100.0    0.000     0.000     0.000     0.000     0.000    1.00     0.00    0.00      0   -9.90   -9.00       11.5       20.0       22.0       22.0       21.8       22.0       22.0       22.0       22.0       22.0       22.0       22.0        0.0        0.0        0.0        0.0        0.0        0.0        0.0        0.0        0.0        0.0        0.0        0.0      1.6       7.4      25.0      31.7      38.4    362.74
    22     4  1996    92     4     245.6     0.0      0.0    0.0    0.0    0.0      0.0      0.0   -9.90      0.9      0.6     62      5.2      5.2   100      6.1     5.8      94     17.8    1.00     -9      0     -9      0      0    74.6    74.6      0     0.91      5.2      5.2      5.2   100    17.7     9.252    61.7    5.707  114.140      96        1.40    0.000    0.000     245.6    201.6    1.00   201.6     410.0     220.0     205.1     162.5     137.9     100.0    0.000     0.000     0.000     0.000     0.000    1.00     0.00    0.00      0   -9.90   -9.00        9.0       16.7       22.0       22.0       21.8       22.0       22.0       22.0       22.0       22.0       22.0       22.0        0.0        0.0        0.0        0.0        0.0        0.0        0.0        0.0        0.0        0.0        0.0        0.0      0.0       5.7      21.5      28.2      35.0    362.74
    23     4  1996    93     4     238.6     0.0      0.0    0.0    0.0    0.0      0.0      0.0   -9.90      1.3      0.2     14      6.9      6.9   100      8.1     7.0      87     19.2    1.00     -9      0     -9      0      0    74.3    74.3      0     0.90      6.9      6.9      6.9   100    17.7     9.412    63.0    5.930  118.591      96        1.43    0.000    0.000     238.6    194.6    1.00   194.6     410.0     220.0     213.7     169.2     143.1     100.0    0.000     0.000     0.000     0.000     0.000    1.00     0.00    0.00      0   -9.90   -9.00        8.8       12.1       19.8       22.0       21.9       22.0       22.0       22.0       22.0       22.0       22.0       22.0        0.0        0.0        0.0        0.0        0.0        0.0        0.0        0.0        0.0        0.0        0.0        0.0      0.0       7.6      24.5      31.2      38.0    362.74
    24     4  1996    94     4     233.4     0.0      0.0    0.0    0.0    0.0      0.0      0.0   -9.90      1.0      0.1      7      5.1      5.1   100      6.1     5.2      85     18.8    1.00     -9      0     -9      0      0    73.9    73.9      0     0.90      5.1      5.1      5.1   100    17.7     9.570    63.0    6.029  120.586      96        1.43    0.000    0.000     233.4    189.4    1.00   189.4     410.0     220.0     205.1     162.5     137.9     100.0    0.000     0.000     0.000     0.000     0.000    1.00     0.00    0.00      0   -9.90   -9.00        8.7        9.0       17.8       22.0       21.9       22.0       22.0       22.0       22.0       22.0       22.0       22.0        0.0        0.0        0.0        0.0        0.0        0.0        0.0        0.0        0.0        0.0        0.0        0.0      0.0       5.7      23.5      29.5      35.5    362.74
    25     4  1996    95     4     227.1     0.0      0.0    0.0    0.0    0.0      0.0      0.0   -9.90      1.2      0.0      4      6.2      6.2   100      7.4     6.3      85     18.8    1.00     -9      0     -9      0      0    73.6    73.6      0     0.89      6.2      6.2      6.2   100    17.7     9.727    63.0    6.128  122.562      96        1.44    0.000    0.000     227.1    183.1    1.00   183.1     410.0     220.0     211.0     167.1     141.5     100.0    0.000     0.000     0.000     0.000     0.000    1.00     0.00    0.00      0   -9.90   -9.00        8.7        9.0       13.6       20.0       21.9       22.0       22.0       22.0       22.0       22.0       22.0       22.0        0.0        0.0        0.0        0.0        0.0        0.0        0.0        0.0        0.0        0.0        0.0        0.0      0.0       7.0      23.6      30.8      38.0    362.74
    26     4  1996    96     4     220.1     0.0      0.0    0.0    0.0    0.0      0.0      0.0   -9.90      1.4      0.1      4      6.9      6.9   100      8.3     7.0      84     19.0    1.00     -9      0     -9      0      0    73.1    73.1      0     0.88      6.9      6.9      6.9   100    17.7     9.882    63.0    6.226  124.517      96        1.43    0.000    0.000     220.1    176.1    1.00   176.1     410.0     220.0     215.0     170.3     143.9     100.0    0.000     0.000     0.000     0.000     0.000    1.00     0.00    0.00      0   -9.90   -9.00        8.6        9.0       10.1       16.5       21.9       22.0       22.0       22.0       22.0       22.0       22.0       22.0        0.0        0.0        0.0        0.0        0.0        0.0        0.0        0.0        0.0        0.0        0.0        0.0      0.0       7.9      24.0      31.3      38.6    362.74
    27     4  1996    97     4     263.5     0.0     52.1    0.0   52.1    0.0      0.0      0.0   -9.90      1.5      1.5    100      7.3      7.3   100      8.7     8.7     100     18.8    1.00     -9      0     -9      0      0    72.7    72.7      0     0.87      7.3      7.3      7.3   100    17.7    10.036    63.0    6.322  126.450      96        1.43    0.000    0.000     263.5    219.5    1.00   219.5     410.0     220.0     217.3     172.1     145.3     100.0    0.000     0.000     0.000     0.000     0.000    1.00     0.00    0.00      0   -9.90   -9.00       34.4       26.6       10.1       16.5       21.9       22.0       22.0       22.0       22.0       22.0       22.0       22.0        0.0        0.0        0.0        0.0        0.0        0.0        0.0        0.0        0.0        0.0        0.0        0.0      0.0       8.4      23.6      31.7      39.8    362.74
    28     4  1996    98     4     255.7     0.0      0.0    0.0    0.0    0.0      0.0      0.0   -9.90      1.3      1.3    100      6.5      6.5   100      7.9     7.9     100     19.8    1.00     -9      0     -9      0      0    72.2    72.2      0     0.86      6.5      6.5      6.5   100    17.7    10.187    63.0    6.418  128.359      96        1.42    0.000    0.000     255.7    211.7    1.00   211.7     410.0     220.0     213.7     169.2     143.1     100.0    0.000     0.000     0.000     0.000     0.000    1.00     0.00    0.00      0   -9.90   -9.00       15.9       21.1       22.3       20.5       21.9       22.0       22.0       22.0       22.0       22.0       22.0       22.0        0.0        0.0        0.0        0.0        0.0        0.0        0.0        0.0        0.0        0.0        0.0        0.0      0.0       7.6      25.5      33.0      40.5    362.74
    29     4  1996    99     4     246.9     0.0      0.0    0.0    0.0    0.0      0.0      0.0   -9.90      1.6      1.6    100      7.3      7.3   100      8.8     8.8     100     19.2    1.00     -9      0     -9      0      0    71.6    71.6      0     0.85      7.3      7.3      7.3   100    17.7    10.337    63.0    6.512  130.242      96        1.42    0.000    0.000     246.9    202.9    1.00   202.9     410.0     220.0     218.2     172.8     145.8     100.0    0.000     0.000     0.000     0.000     0.000    1.00     0.00    0.00      0   -9.90   -9.00        9.8       18.3       22.0       20.8       21.9       22.0       22.0       22.0       22.0       22.0       22.0       22.0        0.0        0.0        0.0        0.0        0.0        0.0        0.0        0.0        0.0        0.0        0.0        0.0      0.0       8.6      24.5      32.6      40.8    362.74
    30     4  1996   100     4     237.9     0.0      0.0    0.0    0.0    0.0      0.0      0.0   -9.90      1.6      1.6    100      7.3      7.3   100      8.9     8.9     100     20.1    1.00     -9      0     -9      0      0    71.0    71.0      0     0.83      7.3      7.3      7.3   100    17.7    10.484    63.0    6.605  132.099      96        1.41    0.000    0.000     237.9    193.9    1.00   193.9     410.0     220.0     219.1     173.5     146.4     100.0    0.000     0.000     0.000     0.000     0.000    1.00     0.00    0.00      0   -9.90   -9.00        8.2       13.6       19.4       20.9       21.9       22.0       22.0       22.0       22.0       22.0       22.0       22.0        0.0        0.0        0.0        0.0        0.0        0.0        0.0        0.0        0.0        0.0        0.0        0.0      0.0       8.8      26.2      33.9      41.5    362.74
     1     5  1996   101     4     228.0     0.0      0.0    0.0    0.0    0.0      0.0      0.0   -9.90      2.0      1.1     54      8.9      8.9   100     10.9     9.9      91     20.2    1.00     -9      0     -9      0      0    70.4    70.4      0     0.82      8.9      8.9      8.9   100    17.7    10.629    63.0    6.696  133.926      97        1.40    0.000    0.000     228.0    184.0    1.00   184.0     410.0     220.0     220.0     180.6     151.8     100.0    0.000     0.000     0.000     0.000     0.000    1.00     0.00    0.00      0   -9.90   -9.00        7.1       10.0       15.2       19.9       21.9       22.0       22.0       22.0       22.0       22.0       22.0       22.0        0.0        0.0        0.0        0.0        0.0        0.0        0.0        0.0        0.0        0.0        0.0        0.0      0.0      10.8      26.5      34.5      42.5    362.74
     2     5  1996   102     4     266.3     0.0     46.9    0.0   46.9    0.0      0.0      0.0   -9.90      1.6      1.6    100      6.9      6.9   100      8.6     8.6     100     19.6    1.00     -9      0     -9      0      0    69.7    69.7      0     0.81      6.9      6.9      6.9   100    17.7    10.772    63.0    6.786  135.722      97        1.39    0.000    0.000     266.3    222.3    1.00   222.3     410.0     220.0     218.2     172.8     145.8     100.0    0.000     0.000     0.000     0.000     0.000    1.00     0.00    0.00      0   -9.90   -9.00       34.2       21.2       15.2       19.9       21.9       22.0       22.0       22.0       22.0       22.0       22.0       22.0        0.0        0.0        0.0        0.0        0.0        0.0        0.0        0.0        0.0        0.0        0.0        0.0      0.0       8.6      25.2      32.9      40.5    362.74
     3     5  1996   103     4     256.3     0.0      0.0    0.0    0.0    0.0      0.9      0.0   -9.90      1.8      1.8    100      7.3      7.3   100      9.1     9.1     100     18.8    1.00     -9      0     -9      0      0    69.0    69.0      0     0.79      7.3      7.3      7.3   100    17.7    10.912    63.0    6.874  137.486      97        1.39    0.000    0.000     256.3    212.3    1.00   212.3     410.0     220.0     220.0     174.9     147.5     100.0    0.000     0.000     0.000     0.000     0.000    1.00     0.00    0.00      0   -9.90   -9.00       15.5       20.3       22.3       22.1       22.0       22.0       22.0       22.0       22.0       22.0       22.0       22.0        0.0        0.0        0.0        0.0        0.0        0.0        0.0        0.0        0.0        0.0        0.0        0.0      0.0       9.2      23.5      31.6      39.6    362.74
     4     5  1996   104     4     245.8     0.0      0.0    0.0    0.0    0.0      0.4      0.0   -9.90      2.1      2.1    100      8.0      8.0   100     10.0    10.0     100     18.4    1.00     -9      0     -9      0      0    68.2    68.2      0     0.77      8.0      8.0      8.0   100    17.7    11.049    63.0    6.961  139.213      97        1.38    0.000    0.000     245.8    201.8    1.00   201.8     410.0     220.0     220.0     178.8     150.5     100.0    0.000     0.000     0.000     0.000     0.000    1.00     0.00    0.00      0   -9.90   -9.00        9.5       16.3       22.0       22.0       22.0       22.0       22.0       22.0       22.0       22.0       22.0       22.0        0.0        0.0        0.0        0.0        0.0        0.0        0.0        0.0        0.0        0.0        0.0        0.0      0.0      10.3      22.7      31.8      40.8    362.74
     5     5  1996   105     4     237.7     0.0      0.0    0.0    0.0    0.0      0.1      0.0   -9.90      1.8      1.5     88      6.5      6.5   100      8.3     8.1      97     17.0    1.00     -9      0     -9      0      0    67.3    67.3      0     0.76      6.5      6.5      6.5   100    17.7    11.183    63.0    7.045  140.902      97        1.37    0.000    0.000     237.7    193.7    1.00   193.7     410.0     220.0     218.2     172.8     145.8     100.0    0.000     0.000     0.000     0.000     0.000    1.00     0.00    0.00      0   -9.90   -9.00        7.9       11.7       20.0       22.0       22.0       22.0       22.0       22.0       22.0       22.0       22.0       22.0        0.0        0.0        0.0        0.0        0.0        0.0        0.0        0.0        0.0        0.0        0.0        0.0      0.0       8.6      20.0      30.0      40.0    362.74
     6     5  1996   106     4     231.2     0.0      0.0    0.0    0.0    0.0      0.0      0.0   -9.90      1.8      0.1      6      6.4      6.4   100      8.2     6.5      79     18.5    1.00     -9      0     -9      0      0    66.4    66.4      0     0.74      6.4      6.4      6.4   100    17.7    11.314    63.0    7.128  142.551      97        1.37    0.000    0.000     231.2    187.2    1.00   187.2     410.0     220.0     218.6     173.1     146.1     100.0    0.000     0.000     0.000     0.000     0.000    1.00     0.00    0.00      0   -9.90   -9.00        7.8        9.2       16.1       22.0       22.0       22.0       22.0       22.0       22.0       22.0       22.0       22.0        0.0        0.0        0.0        0.0        0.0        0.0        0.0        0.0        0.0        0.0        0.0        0.0      0.0       8.7      23.0      31.8      40.6    362.74
     7     5  1996   107     4     224.2     0.0      0.0    0.0    0.0    0.0      0.0      0.0   -9.90      2.0      0.1      4      6.9      6.9   100      9.0     7.0      78     18.9    1.00     -9      0     -9      0      0    65.4    65.4      0     0.72      6.9      6.9      6.9   100    17.7    11.441    63.0    7.208  144.156      97        1.37    0.000    0.000     224.2    180.2    1.00   180.2     410.0     220.0     220.0     176.3     148.5     100.0    0.000     0.000     0.000     0.000     0.000    1.00     0.00    0.00      0   -9.90   -9.00        7.8        9.2       12.1       19.1       22.0       22.0       22.0       22.0       22.0       22.0       22.0       22.0        0.0        0.0        0.0        0.0        0.0        0.0        0.0        0.0        0.0        0.0        0.0        0.0      0.0       9.6      23.8      32.2      40.6    362.74
     8     5  1996   108     4     263.8     0.0     48.8    0.0   48.8    0.0      0.0      0.0   -9.90      2.2      2.2    100      7.0      7.0   100      9.2     9.2     100     19.5    1.00     -9      0     -9      0      0    64.3    64.3      0     0.70      7.0      7.0      7.0   100    17.7    11.565    63.0    7.286  145.715      97        1.36    0.000    0.000     263.8    219.8    1.00   219.8     410.0     220.0     220.0     177.8     149.6     100.0    0.000     0.000     0.000     0.000     0.000    1.00     0.00    0.00      0   -9.90   -9.00       33.7       22.9       12.1       19.1       22.0       22.0       22.0       22.0       22.0       22.0       22.0       22.0        0.0        0.0        0.0        0.0        0.0        0.0        0.0        0.0        0.0        0.0        0.0        0.0      0.0      10.0      25.0      33.3      41.6    362.74
     9     5  1996   109     4     254.5     0.0      0.0    0.0    0.0    0.0      0.0      0.0   -9.90      2.3      2.3    100      7.0      7.0   100      9.3     9.3     100     19.2    1.00     -9      0     -9      0      0    63.1    63.1      0     0.68      7.0      7.0      7.0   100    17.7    11.684    63.0    7.361  147.224      97        1.35    0.000    0.000     254.5    210.5    1.00   210.5     410.0     220.0     220.0     178.8     150.5     100.0    0.000     0.000     0.000     0.000     0.000    1.00     0.00    0.00      0   -9.90   -9.00       15.0       20.6       22.2       20.8       22.0       22.0       22.0       22.0       22.0       22.0       22.0       22.0        0.0        0.0        0.0        0.0        0.0        0.0        0.0        0.0        0.0        0.0        0.0        0.0      0.0      10.3      24.5      33.1      41.8    362.74
    10     5  1996   110     4     245.6     0.0      0.0    0.0    0.0    0.0      0.0      0.0   -9.90      2.3      2.3    100      6.6      6.6   100      8.9     8.9     100     19.8    1.00     -9      0     -9      0      0    61.8    61.8      0     0.65      6.6      6.6      6.6   100    17.7    11.800    63.0    7.434  148.680      97        1.34    0.000    0.000     245.6    201.6    1.00   201.6     410.0     220.0     220.0     178.1     149.9     100.0    0.000     0.000     0.000     0.000     0.000    1.00     0.00    0.00      0   -9.90   -9.00        9.2       17.5       22.0       20.9       22.0       22.0       22.0       22.0       22.0       22.0       22.0       22.0        0.0        0.0        0.0        0.0        0.0        0.0        0.0        0.0        0.0        0.0        0.0        0.0      0.0      10.1      25.5      33.2      41.0    362.74
