AquaCrop 7.2 (August 2024) - Output created on (date) : 12-12-2024   at (time) : 03:20:04

    RunNr     Day1   Month1    Year1     Rain      ETo       GD     CO2      Irri   Infilt   Runoff    Drain   Upflow        E     E/Ex       Tr      TrW   Tr/Trx    SaltIn   SaltOut    SaltUp  SaltProf     Cycle   SaltStr  FertStr  WeedStr  TempStr   ExpStr   StoStr  BioMass  Brelative   HI    Y(dry)  Y(fresh)    WPet      Bin     Bout     DayN   MonthN    YearN
                                           mm       mm  degC.day    ppm        mm       mm       mm       mm       mm       mm        %       mm       mm        %    ton/ha    ton/ha    ton/ha    ton/ha      days       %        %        %        %        %        %    ton/ha        %       %    ton/ha   ton/ha    kg/m3   ton/ha   ton/ha
   Tot(1)       22        1     1996     30.2    622.6   2010.1   362.74    765.0    795.2      0.0    333.9      0.0    143.5       49    341.2    341.2      100     7.344     1.802     0.000     5.542       96        0        0        0        0        4        0    10.385       98     49.0    5.087  101.741     1.06    0.000    0.000       10        5     1996  tom.PRO
