AquaCrop 7.2 (August 2024) - Output created on (date) : 23-12-2024   at (time) : 03:31:28

    RunNr     Day1   Month1    Year1     Rain      ETo       GD     CO2      Irri   Infilt   Runoff    Drain   Upflow        E     E/Ex       Tr      TrW   Tr/Trx    SaltIn   SaltOut    SaltUp  SaltProf     Cycle   SaltStr  FertStr  WeedStr  TempStr   ExpStr   StoStr  BioMass  Brelative   HI    Y(dry)  Y(fresh)    WPet      Bin     Bout     DayN   MonthN    YearN
                                           mm       mm  degC.day    ppm        mm       mm       mm       mm       mm       mm        %       mm       mm        %    ton/ha    ton/ha    ton/ha    ton/ha      days       %        %        %        %        %        %    ton/ha        %       %    ton/ha   ton/ha    kg/m3   ton/ha   ton/ha
      Day        7        2     1997      0.0      4.6     17.4   363.88      8.0      8.0      0.0      0.0      0.0      4.6      100      0.0      0.0       -9     0.077     0.000     0.000     0.077       -9        0        0        0        0        0        0     0.000       -9     -9.9       -9       -9       -9       -9    0.000    0.000        7        2     1997  tom.PRO
      Day        8        2     1997      0.1      4.5     18.1   363.88      0.0      0.1      0.0      2.4      0.0      3.4       76      0.0      0.0       -9     0.000     0.000     0.000     0.077       -9        0        0        0        0        0        0     0.000       -9     -9.9       -9       -9       -9       -9    0.000    0.000        8        2     1997  tom.PRO
      Day        9        2     1997      0.1      4.8     19.2   363.88      0.0      0.1      0.0      0.7      0.0      3.5       73      0.0      0.0       -9     0.000     0.000     0.000     0.077       -9        0        0        0        0        0        0     0.000       -9     -9.9       -9       -9       -9       -9    0.000    0.000        9        2     1997  tom.PRO
      Day       10        2     1997      0.1      4.8     19.0   363.88      0.0      0.1      0.0      0.1      0.0      3.4       72      0.0      0.0       -9     0.000     0.000     0.000     0.077       -9        0        0        0        0        0        0     0.000       -9     -9.9       -9       -9       -9       -9    0.000    0.000       10        2     1997  tom.PRO
      Day       11        2     1997      0.0      4.8     18.0   363.88      0.0      0.0      0.0      0.0      0.0      1.9       40      0.0      0.0       -9     0.000     0.000     0.000     0.077       -9        0        0        0        0        0        0     0.000       -9     -9.9       -9       -9       -9       -9    0.000    0.000       11        2     1997  tom.PRO
      Day       12        2     1997      1.1      4.7     19.0   363.88      0.0      1.1      0.0      0.0      0.0      2.3       45      0.0      0.0       -9     0.000     0.000     0.000     0.077       -9        0        0        0        0        0        0     0.000       -9     -9.9       -9       -9       -9       -9    0.000    0.000       12        2     1997  tom.PRO
      Day       13        2     1997      0.1      4.9     19.2   363.88      0.0      0.1      0.0      0.0      0.0      1.3       24      0.0      0.0       -9     0.000     0.000     0.000     0.077       -9        0        0        0        0        0        0     0.000       -9     -9.9       -9       -9       -9       -9    0.000    0.000       13        2     1997  tom.PRO
      Day       14        2     1997      0.0      4.8     18.4   363.88      8.0      8.0      0.0      0.0      0.0      4.7      100      0.0      0.0       -9     0.077     0.000     0.000     0.154       -9        0        0        0        0        0        0     0.000       -9     -9.9       -9       -9       -9       -9    0.000    0.000       14        2     1997  tom.PRO
      Day       15        2     1997      0.0      4.9     18.8   363.88      0.0      0.0      0.0      0.0      0.0      2.3       48      0.0      0.0       -9     0.000     0.000     0.000     0.154       -9        0        0        0        0        0        0     0.000       -9     -9.9       -9       -9       -9       -9    0.000    0.000       15        2     1997  tom.PRO
      Day       16        2     1997      0.0      5.0     18.2   363.88      0.0      0.0      0.0      0.0      0.0      1.1       22      0.0      0.0       -9     0.000     0.000     0.000     0.154       -9        0        0        0        0        0        0     0.000       -9     -9.9       -9       -9       -9       -9    0.000    0.000       16        2     1997  tom.PRO
      Day       17        2     1997      0.0      4.7     18.0   363.88      0.0      0.0      0.0      0.0      0.0      0.8       17      0.0      0.0       -9     0.000     0.000     0.000     0.154       -9        0        0        0        0        0        0     0.000       -9     -9.9       -9       -9       -9       -9    0.000    0.000       17        2     1997  tom.PRO
      Day       18        2     1997      0.0      4.9     18.0   363.88      0.0      0.0      0.0      0.0      0.0      0.7       14      0.1      0.1      100     0.000     0.000     0.000     0.154        1        0        0        0        0        0        0     0.002      100      0.0       -9       -9       -9       -9    0.000    0.000       18        2     1997  tom.PRO
      Day       19        2     1997      0.1      4.9     18.6   363.88      0.0      0.1      0.0      0.0      0.0      0.7       14      0.1      0.1      100     0.000     0.000     0.000     0.154        2        0        0        0        0        7        0     0.003       98      0.0       -9       -9       -9       -9    0.000    0.000       19        2     1997  tom.PRO
      Day       20        2     1997      0.0      5.0     18.6   363.88      0.0      0.0      0.0      0.0      0.0      0.5       11      0.1      0.1      100     0.000     0.000     0.000     0.154        3        0        0        0        0       10        0     0.003       96      0.0       -9       -9       -9       -9    0.000    0.000       20        2     1997  tom.PRO
      Day       21        2     1997      1.2      4.7     19.0   363.88      8.0      9.2      0.0      0.0      0.0      5.1      100      0.1      0.1      100     0.077     0.000     0.000     0.230        4        0        0        0        0        7        0     0.004       96      0.0       -9       -9       -9       -9    0.000    0.000       21        2     1997  tom.PRO
      Day       22        2     1997      0.9      5.1     19.8   363.88      0.0      0.9      0.0      0.0      0.0      2.0       36      0.1      0.1      100     0.000     0.000     0.000     0.230        5        0        0        0        0        7        0     0.004       96      0.0       -9       -9       -9       -9    0.000    0.000       22        2     1997  tom.PRO
      Day       23        2     1997      0.1      4.7     20.0   363.88      0.0      0.1      0.0      0.0      0.0      1.0       20      0.1      0.1      100     0.000     0.000     0.000     0.230        6        0        0        0        0        6        0     0.005       95      0.0       -9       -9       -9       -9    0.000    0.000       23        2     1997  tom.PRO
      Day       24        2     1997      0.0      5.3     19.7   363.88      0.0      0.0      0.0      0.0      0.0      0.8       15      0.2      0.2      100     0.000     0.000     0.000     0.230        7        0        0        0        0        7        0     0.005       94      0.0       -9       -9       -9       -9    0.000    0.000       24        2     1997  tom.PRO
      Day       25        2     1997      1.0      5.3     19.8   363.88      0.0      1.0      0.0      0.0      0.0      1.6       27      0.2      0.2      100     0.000     0.000     0.000     0.230        8        0        0        0        0        7        0     0.006       93      0.0       -9       -9       -9       -9    0.000    0.000       25        2     1997  tom.PRO
      Day       26        2     1997      0.0      5.1     19.6   363.88      0.0      0.0      0.0      0.0      0.0      0.6       10      0.2      0.2      100     0.000     0.000     0.000     0.230        9        0        0        0        0        7        0     0.007       92      0.0       -9       -9       -9       -9    0.000    0.000       26        2     1997  tom.PRO
      Day       27        2     1997      0.0      5.2     18.9   363.88      0.0      0.0      0.0      0.0      0.0      0.5        9      0.2      0.2      100     0.000     0.000     0.000     0.230       10        0        0        0        0        7        0     0.008       91      0.0       -9       -9       -9       -9    0.000    0.000       27        2     1997  tom.PRO
      Day       28        2     1997      0.0      5.2     18.0   363.88      8.0      8.0      0.0      0.0      0.0      4.9      100      0.3      0.3      100     0.077     0.000     0.000     0.307       11        0        0        0        0        7        0     0.009       91      0.0       -9       -9       -9       -9    0.000    0.000       28        2     1997  tom.PRO
      Day        1        3     1997      0.0      5.1     18.8   363.88      0.0      0.0      0.0      0.0      0.0      1.7       35      0.3      0.3      100     0.000     0.000     0.000     0.307       12        0        0        0        0        6        0     0.010       90      0.0       -9       -9       -9       -9    0.000    0.000        1        3     1997  tom.PRO
      Day        2        3     1997      0.0      5.4     18.4   363.88      0.0      0.0      0.0      0.0      0.0      0.5       10      0.4      0.4      100     0.000     0.000     0.000     0.307       13        0        0        0        0        7        0     0.011       89      0.0       -9       -9       -9       -9    0.000    0.000        2        3     1997  tom.PRO
      Day        3        3     1997      0.0      5.2     19.0   363.88      0.0      0.0      0.0      0.0      0.0      0.4        9      0.4      0.4      100     0.000     0.000     0.000     0.307       14        0        0        0        0        7        0     0.013       88      0.0       -9       -9       -9       -9    0.000    0.000        3        3     1997  tom.PRO
      Day        4        3     1997      0.1      5.2     18.2   363.88      0.0      0.1      0.0      0.0      0.0      0.4        9      0.4      0.4      100     0.000     0.000     0.000     0.307       15        0        0        0        0        7        0     0.015       87      0.0       -9       -9       -9       -9    0.000    0.000        4        3     1997  tom.PRO
      Day        5        3     1997      0.0      5.2     18.4   363.88      0.0      0.0      0.0      0.0      0.0      0.3        7      0.5      0.5      100     0.000     0.000     0.000     0.307       16        0        0        0        0        7        0     0.017       86      0.0       -9       -9       -9       -9    0.000    0.000        5        3     1997  tom.PRO
      Day        6        3     1997      0.0      5.2     18.6   363.88      0.0      0.0      0.0      0.0      0.0      0.3        7      0.6      0.6      100     0.000     0.000     0.000     0.307       17        0        0        0        0        7        0     0.019       85      0.0       -9       -9       -9       -9    0.000    0.000        6        3     1997  tom.PRO
      Day        7        3     1997      0.0      6.0     18.7   363.88      8.0      8.0      0.0      0.0      0.0      5.2      100      0.7      0.7      100     0.077     0.000     0.000     0.384       18        0        0        0        0        7        0     0.021       85      0.0       -9       -9       -9       -9    0.000    0.000        7        3     1997  tom.PRO
      Day        8        3     1997      0.0      5.2     18.9   363.88      0.0      0.0      0.0      0.0      0.0      1.3       25      0.7      0.7      100     0.000     0.000     0.000     0.384       19        0        0        0        0        7        0     0.024       84      0.0       -9       -9       -9       -9    0.000    0.000        8        3     1997  tom.PRO
      Day        9        3     1997      0.0      5.1     19.1   363.88      0.0      0.0      0.0      0.0      0.0      0.3        7      0.8      0.8      100     0.000     0.000     0.000     0.384       20        0        0        0        0        7        0     0.028       83      0.0       -9       -9       -9       -9    0.000    0.000        9        3     1997  tom.PRO
      Day       10        3     1997      0.0      5.5     19.3   363.88      0.0      0.0      0.0      0.0      0.0      0.3        6      1.0      1.0      100     0.000     0.000     0.000     0.384       21        0        0        0        0        7        0     0.031       82      0.0       -9       -9       -9       -9    0.000    0.000       10        3     1997  tom.PRO
      Day       11        3     1997      0.0      5.5     19.4   363.88      0.0      0.0      0.0      0.0      0.0      0.2        5      1.1      1.1      100     0.000     0.000     0.000     0.384       22        0        0        0        0        7        0     0.035       81      0.0       -9       -9       -9       -9    0.000    0.000       11        3     1997  tom.PRO
      Day       12        3     1997      0.0      5.6     19.0   363.88      0.0      0.0      0.0      0.0      0.0      0.2        4      1.2      1.2      100     0.000     0.000     0.000     0.384       23        0        0        0        0        8        0     0.039       80      0.0       -9       -9       -9       -9    0.000    0.000       12        3     1997  tom.PRO
      Day       13        3     1997      0.0      5.8     19.4   363.88      0.0      0.0      0.0      0.0      0.0      0.2        4      1.4      1.4      100     0.000     0.000     0.000     0.384       24        0        0        0        0        8        0     0.043       79      0.0       -9       -9       -9       -9    0.000    0.000       13        3     1997  tom.PRO
      Day       14        3     1997      0.0      5.5     19.4   363.88      8.0      8.0      0.0      0.0      0.0      4.0      100      1.5      1.5      100     0.077     0.000     0.000     0.461       25        0        0        0        0        8        0     0.049       78      0.0       -9       -9       -9       -9    0.000    0.000       14        3     1997  tom.PRO
      Day       15        3     1997      0.3      5.7     19.2   363.88      0.0      0.3      0.0      0.0      0.0      0.5       12      1.8      1.8      100     0.000     0.000     0.000     0.461       26        0        0        0        0        8        0     0.054       77      0.0       -9       -9       -9       -9    0.000    0.000       15        3     1997  tom.PRO
      Day       16        3     1997      0.4      5.6     19.9   363.88      0.0      0.4      0.0      0.0      0.0      0.5       14      1.9      1.9      100     0.000     0.000     0.000     0.461       27        0        0        0        0        8        0     0.060       76      0.0       -9       -9       -9       -9    0.000    0.000       16        3     1997  tom.PRO
      Day       17        3     1997      0.3      5.5     19.6   363.88      0.0      0.3      0.0      0.0      0.0      0.4       12      2.1      2.1      100     0.000     0.000     0.000     0.461       28        0        0        0        0        9        0     0.067       75      0.0       -9       -9       -9       -9    0.000    0.000       17        3     1997  tom.PRO
      Day       18        3     1997      0.0      5.6     19.4   363.88      0.0      0.0      0.0      0.0      0.0      0.2        5      2.3      2.3      100     0.000     0.000     0.000     0.461       29        0        0        0        0        9        0     0.073       74      0.0       -9       -9       -9       -9    0.000    0.000       18        3     1997  tom.PRO
      Day       19        3     1997      0.0      5.6     19.4   363.88      0.0      0.0      0.0      0.0      0.0      0.1        5      2.5      2.5      100     0.000     0.000     0.000     0.461       30        0        0        0        0       10        0     0.080       74      0.0       -9       -9       -9       -9    0.000    0.000       19        3     1997  tom.PRO
      Day       20        3     1997      0.0      5.8     19.4   363.88      0.0      0.0      0.0      0.0      0.0      0.1        4      2.8      2.8      100     0.000     0.000     0.000     0.461       31        0        0        0        0       10        0     0.086       74      0.0       -9       -9       -9       -9    0.000    0.000       20        3     1997  tom.PRO
      Day       21        3     1997      3.5      5.1     20.1   363.88      8.0     11.5      0.0      0.0      0.0      2.7      100      2.8      2.8      100     0.077     0.000     0.000     0.538       32        0        0        0        0       10        0     0.096       79      0.0       -9       -9       -9       -9    0.000    0.000       21        3     1997  tom.PRO
      Day       22        3     1997      0.2      5.4     19.4   363.88      0.0      0.2      0.0      0.0      0.0      0.7       27      3.2      3.2      100     0.000     0.000     0.000     0.538       33        0        0        0        0       11        0     0.104       82      0.0       -9       -9       -9       -9    0.000    0.000       22        3     1997  tom.PRO
      Day       23        3     1997      0.0      5.7     18.9   363.88      0.0      0.0      0.0      0.0      0.0      0.2        9      3.6      3.6      100     0.000     0.000     0.000     0.538       34        0        0        0        0       11        0     0.110       83      0.0       -9       -9       -9       -9    0.000    0.000       23        3     1997  tom.PRO
      Day       24        3     1997      0.0      5.6     19.1   363.88      0.0      0.0      0.0      0.0      0.0      0.1        5      3.6      3.6      100     0.000     0.000     0.000     0.538       35        0        0        0        0       12        0     0.115       84      0.0       -9       -9       -9       -9    0.000    0.000       24        3     1997  tom.PRO
      Day       25        3     1997      0.0      5.4     18.8   363.88      0.0      0.0      0.0      0.0      0.0      0.1        5      3.6      3.6      100     0.000     0.000     0.000     0.538       36        0        0        0        0       13        0     0.118       85      0.0       -9       -9       -9       -9    0.000    0.000       25        3     1997  tom.PRO
      Day       26        3     1997      0.0      5.9     18.8   363.88      0.0      0.0      0.0      0.0      0.0      0.1        5      3.9      3.9       98     0.000     0.000     0.000     0.538       37        0        0        0        0       15        0     0.118       83      0.0       -9       -9       -9       -9    0.000    0.000       26        3     1997  tom.PRO
      Day       27        3     1997      0.0      5.7     18.9   363.88      0.0      0.0      0.0      0.0      0.0      0.1        5      3.6      3.6       93     0.000     0.000     0.000     0.538       38        0        0        0        0       17        0     0.112       77      0.0       -9       -9       -9       -9    0.000    0.000       27        3     1997  tom.PRO
      Day       28        3     1997      0.0      5.8     18.8   363.88      8.0      8.0      0.0      0.0      0.0      1.9      100      4.0      4.0       98     0.077     0.000     0.000     0.614       39        0        0        0        0       17        0     0.121       82      0.0       -9       -9       -9       -9    0.000    0.000       28        3     1997  tom.PRO
      Day       29        3     1997      0.0      5.9     19.6   363.88      0.0      0.0      0.0      0.0      0.0      2.0      100      3.6      3.6       88     0.000     0.000     0.000     0.614       40        0        0        0        0       19        1     0.109       73      0.0       -9       -9       -9       -9    0.000    0.000       29        3     1997  tom.PRO
      Day       30        3     1997      0.0      6.4     19.2   363.88      0.0      0.0      0.0      0.0      0.0      1.8       84      3.4      3.4       77     0.000     0.000     0.000     0.614       41        0        0        0        0       21        1     0.095       64      0.0       -9       -9       -9       -9    0.000    0.000       30        3     1997  tom.PRO
      Day       31        3     1997      0.0      5.8     19.2   363.88      0.0      0.0      0.0      0.0      0.0      0.1        3      3.0      3.0       75     0.000     0.000     0.000     0.614       42        0        0        0        0       23        2     0.092       61      0.0       -9       -9       -9       -9    0.000    0.000       31        3     1997  tom.PRO
      Day        1        4     1997      0.1      5.8     19.6   363.88      0.0      0.1      0.0      0.0      0.0      0.1        8      2.8      2.8       71     0.000     0.000     0.000     0.614       43        0        0        0        0       25        2     0.087       57      0.0       -9       -9       -9       -9    0.000    0.000        1        4     1997  tom.PRO
      Day        2        4     1997      0.0      6.0     20.0   363.88      0.0      0.0      0.0      0.0      0.0      0.1        3      2.8      2.8       66     0.000     0.000     0.000     0.614       44        0        0        0        0       27        3     0.082       53      0.0       -9       -9       -9       -9    0.000    0.000        2        4     1997  tom.PRO
      Day        3        4     1997      0.0      6.1     20.3   363.88      0.0      0.0      0.0      0.0      0.0      0.1        3      2.6      2.6       61     0.000     0.000     0.000     0.614       45        0        0        0        0       28        4     0.075       49      0.0       -9       -9       -9       -9    0.000    0.000        3        4     1997  tom.PRO
      Day        4        4     1997      0.0      6.1     20.4   363.88      8.0      8.0      0.0      0.0      0.0      2.0      100      2.8      2.8       67     0.077     0.000     0.000     0.691       46        0        0        0        0       30        5     0.082       53      0.0       -9       -9       -9       -9    0.000    0.000        4        4     1997  tom.PRO
      Day        5        4     1997      0.0      5.9     20.2   363.88      0.0      0.0      0.0      0.0      0.0      2.0      100      2.4      2.4       59     0.000     0.000     0.000     0.691       47        0        0        0        0       31        5     0.073       47      0.0       -9       -9       -9       -9    0.000    0.000        5        4     1997  tom.PRO
      Day        6        4     1997      0.0      6.4     20.0   363.88      0.0      0.0      0.0      0.0      0.0      1.7       79      2.2      2.2       50     0.000     0.000     0.000     0.691       48        0        0        0        0       33        6     0.062       40      0.0       -9       -9       -9       -9    0.000    0.000        6        4     1997  tom.PRO
      Day        7        4     1997      0.0      6.5     19.9   363.88      0.0      0.0      0.0      0.0      0.0      0.1        3      2.1      2.1       46     0.000     0.000     0.000     0.691       49        0        0        0        0       34        7     0.057       37      0.0       -9       -9       -9       -9    0.000    0.000        7        4     1997  tom.PRO
      Day        8        4     1997      0.0      6.5     20.2   363.88      0.0      0.0      0.0      0.0      0.0      0.1        3      1.9      1.9       43     0.000     0.000     0.000     0.691       50        0        0        0        0       35        8     0.053       34      0.0       -9       -9       -9       -9    0.000    0.000        8        4     1997  tom.PRO
      Day        9        4     1997      0.0      5.9     19.9   363.88      0.0      0.0      0.0      0.0      0.0      0.1        3      1.7      1.7       41     0.000     0.000     0.000     0.691       51        0        0        0        0       37        9     0.050       32      0.0       -9       -9       -9       -9    0.000    0.000        9        4     1997  tom.PRO
      Day       10        4     1997      0.0      5.9     20.2   363.88      0.0      0.0      0.0      0.0      0.0      0.1        3      1.5      1.5       38     0.000     0.000     0.000     0.691       52        0        0        0        0       38       10     0.046       29      0.0       -9       -9       -9       -9    0.000    0.000       10        4     1997  tom.PRO
      Day       11        4     1997      0.0      6.1     20.2   363.88      8.0      8.0      0.0      0.0      0.0      2.1      100      1.9      1.9       45     0.077     0.000     0.000     0.768       53        0        0        0        0       39       11     0.055       35      0.0       -9       -9       -9       -9    0.000    0.000       11        4     1997  tom.PRO
      Day       12        4     1997      0.0      5.9     21.0   363.88      0.0      0.0      0.0      0.0      0.0      2.1      100      1.6      1.6       39     0.000     0.000     0.000     0.768       54        0        0        0        0       40       12     0.047       30      0.0       -9       -9       -9       -9    0.000    0.000       12        4     1997  tom.PRO
      Day       13        4     1997      0.5      5.8     20.2   363.88      0.0      0.5      0.0      0.0      0.0      0.5       25      1.4      1.4       36     0.000     0.000     0.000     0.768       55        0        0        0        0       41       13     0.043       28      0.0       -9       -9       -9       -9    0.000    0.000       13        4     1997  tom.PRO
      Day       14        4     1997      0.0      5.7     19.8   363.88      0.0      0.0      0.0      0.0      0.0      0.1        4      1.3      1.3       34     0.000     0.000     0.000     0.768       56        0        0        0        0       42       14     0.040       25      0.0       -9       -9       -9       -9    0.000    0.000       14        4     1997  tom.PRO
      Day       15        4     1997      0.0      5.9     19.5   363.88      0.0      0.0      0.0      0.0      0.0      0.1        4      1.2      1.2       31     0.000     0.000     0.000     0.768       57        0        0        0        0       43       15     0.037       23      0.0       -9       -9       -9       -9    0.000    0.000       15        4     1997  tom.PRO
      Day       16        4     1997      0.0      6.3     19.6   363.88      0.0      0.0      0.0      0.0      0.0      0.1        4      1.2      1.2       28     0.000     0.000     0.000     0.768       58        0        0        0        0       44       16     0.033       21      1.2       -9       -9       -9       -9    0.000    0.000       16        4     1997  tom.PRO
      Day       17        4     1997      0.0      6.3     20.0   363.88      0.0      0.0      0.0      0.0      0.0      0.1        4      1.1      1.1       26     0.000     0.000     0.000     0.768       59        0        0        0        0       45       17     0.030       19      1.4       -9       -9       -9       -9    0.000    0.000       17        4     1997  tom.PRO
      Day       18        4     1997      0.0      6.2     20.3   363.88      8.0      8.0      0.0      0.0      0.0      2.2      100      2.3      2.3       57     0.077     0.000     0.000     0.845       60        0        0        0        0       46       17     0.066       42      1.6       -9       -9       -9       -9    0.000    0.000       18        4     1997  tom.PRO
      Day       19        4     1997      0.0      6.2     20.8   363.88      0.0      0.0      0.0      0.0      0.0      2.2      100      1.1      1.1       26     0.000     0.000     0.000     0.845       61        0        0        0        0       47       18     0.030       19      1.8       -9       -9       -9       -9    0.000    0.000       19        4     1997  tom.PRO
      Day       20        4     1997      0.2      5.8     21.0   363.88      0.0      0.2      0.0      0.0      0.0      0.3       13      0.9      0.9       25     0.000     0.000     0.000     0.845       62        0        0        0        0       48       19     0.029       18      2.1       -9       -9       -9       -9    0.000    0.000       20        4     1997  tom.PRO
      Day       21        4     1997      0.0      5.9     20.8   363.88      0.0      0.0      0.0      0.0      0.0      0.1        5      0.9      0.9       23     0.000     0.000     0.000     0.845       63        0        0        0        0       49       20     0.026       17      2.4       -9       -9       -9       -9    0.000    0.000       21        4     1997  tom.PRO
      Day       22        4     1997      0.0      6.1     20.4   363.88      0.0      0.0      0.0      0.0      0.0      0.1        5      0.8      0.8       21     0.000     0.000     0.000     0.845       64        0        0        0        0       50       21     0.024       15      2.7       -9       -9       -9       -9    0.000    0.000       22        4     1997  tom.PRO
      Day       23        4     1997      0.0      6.2     20.1   363.88      0.0      0.0      0.0      0.0      0.0      0.1        5      0.8      0.8       19     0.000     0.000     0.000     0.845       65        0        0        0        0       50       22     0.021       14      3.1       -9       -9       -9       -9    0.000    0.000       23        4     1997  tom.PRO
      Day       24        4     1997      0.0      6.1     19.9   363.88      0.0      0.0      0.0      0.0      0.0      0.1        5      0.7      0.7       18     0.000     0.000     0.000     0.845       66        0        0        0        0       51       23     0.020       13      3.5       -9       -9       -9       -9    0.000    0.000       24        4     1997  tom.PRO
      Day       25        4     1997      0.0      6.0     20.5   363.88      8.0      8.0      0.0      0.0      0.0      2.1      100      2.8      2.8       71     0.077     0.000     0.000     0.922       67        0        0        0        0       51       23     0.082       52      3.9       -9       -9       -9       -9    0.000    0.000       25        4     1997  tom.PRO
      Day       26        4     1997      0.0      6.1     20.2   363.88      0.0      0.0      0.0      0.0      0.0      2.1      100      0.7      0.7       19     0.000     0.000     0.000     0.922       68        0        0        0        0       52       24     0.021       14      4.5       -9       -9       -9       -9    0.000    0.000       26        4     1997  tom.PRO
      Day       27        4     1997      0.0      6.1     20.0   363.88      0.0      0.0      0.0      0.0      0.0      1.5       69      0.6      0.6       15     0.000     0.000     0.000     0.922       69        0        0        0        0       53       25     0.017       11      5.0       -9       -9       -9       -9    0.000    0.000       27        4     1997  tom.PRO
      Day       28        4     1997      0.0      6.2     20.2   363.88      0.0      0.0      0.0      0.0      0.0      0.1        4      0.5      0.5       14     0.000     0.000     0.000     0.922       70        0        0        0        0       53       26     0.015       10      5.6       -9       -9       -9       -9    0.000    0.000       28        4     1997  tom.PRO
      Day       29        4     1997      0.0      6.0     20.8   363.88      0.0      0.0      0.0      0.0      0.0      0.1        4      0.5      0.5       13     0.000     0.000     0.000     0.922       71        0        0        0        0       54       26     0.014        9      6.3       -9       -9       -9       -9    0.000    0.000       29        4     1997  tom.PRO
      Day       30        4     1997      0.0      6.2     21.0   363.88      0.0      0.0      0.0      0.0      0.0      0.1        4      0.4      0.4       12     0.000     0.000     0.000     0.922       72        0        0        0        0       55       27     0.013        8      7.1       -9       -9       -9       -9    0.000    0.000       30        4     1997  tom.PRO
      Day        1        5     1997      0.0      6.8     21.0   363.88      0.0      0.0      0.0      0.0      0.0      0.1        4      0.4      0.4       10     0.000     0.000     0.000     0.922       73        0        0        0        0       55       28     0.011        7      7.9       -9       -9       -9       -9    0.000    0.000        1        5     1997  tom.PRO
      Day        2        5     1997      0.0      7.1     21.0   363.88      8.0      8.0      0.0      0.0      0.0      2.6      100      2.0      2.0       47     0.077     0.000     0.000     0.998       74        0        0        0        0       56       28     0.051       32      8.8       -9       -9       -9       -9    0.000    0.000        2        5     1997  tom.PRO
      Day        3        5     1997      0.0      6.8     21.0   363.88      0.0      0.0      0.0      0.0      0.0      2.6      100      0.4      0.4       11     0.000     0.000     0.000     0.998       75        0        0        0        0       56       29     0.012        7      9.8       -9       -9       -9       -9    0.000    0.000        3        5     1997  tom.PRO
      Day        4        5     1997      0.0      6.6     21.0   363.88      0.0      0.0      0.0      0.0      0.0      0.7       28      0.4      0.4        9     0.000     0.000     0.000     0.998       76        0        0        0        0       57       30     0.010        6     10.7       -9       -9       -9       -9    0.000    0.000        4        5     1997  tom.PRO
      Day        5        5     1997      0.0      6.5     21.0   363.88      0.0      0.0      0.0      0.0      0.0      0.1        4      0.3      0.3        8     0.000     0.000     0.000     0.998       77        0        0        0        0       58       31     0.009        6     11.6       -9       -9       -9       -9    0.000    0.000        5        5     1997  tom.PRO
      Day        6        5     1997      0.0      6.6     21.0   363.88      0.0      0.0      0.0      0.0      0.0      0.1        4      0.3      0.3        8     0.000     0.000     0.000     0.998       78        0        0        0        0       58       32     0.008        5     12.5       -9       -9       -9       -9    0.000    0.000        6        5     1997  tom.PRO
      Day        7        5     1997      0.1      6.4     21.0   363.88      0.0      0.1      0.0      0.0      0.0      0.2        7      0.3      0.3        7     0.000     0.000     0.000     0.998       79        0        0        0        0       59       32     0.007        5     13.4       -9       -9       -9       -9    0.000    0.000        7        5     1997  tom.PRO
      Day        8        5     1997      2.2      5.2     20.4   363.88      0.0      2.2      0.0      0.0      0.0      2.2       99      0.2      0.2        7     0.000     0.000     0.000     0.998       80        0        0        0        0       59       33     0.007        5     14.3       -9       -9       -9       -9    0.000    0.000        8        5     1997  tom.PRO
      Day        9        5     1997      2.8      5.1     20.4   363.88      8.0     10.8      0.0      0.0      0.0      2.0      100      3.3      3.3      100     0.077     0.000     0.000     1.075       81        0        0        0        0       59       33     0.114       74     15.4       -9       -9       -9       -9    0.000    0.000        9        5     1997  tom.PRO
      Day       10        5     1997      7.0      5.0     20.8   363.88      0.0      7.0      0.0      0.0      0.0      1.8      100      3.5      3.5      100     0.000     0.000     0.000     1.075       82        0        0        0        0       58       32     0.124       80     16.5       -9       -9       -9       -9    0.000    0.000       10        5     1997  tom.PRO
      Day       11        5     1997      0.6      5.1     19.8   363.88      0.0      0.6      0.0      0.0      0.0      0.9       48      2.7      2.7       76     0.000     0.000     0.000     1.075       83        0        0        0        0       58       32     0.093       60     17.6       -9       -9       -9       -9    0.000    0.000       11        5     1997  tom.PRO
      Day       12        5     1997      3.2      5.0     21.0   363.88      0.0      3.2      0.0      0.0      0.0      1.8      100      1.9      1.9       55     0.000     0.000     0.000     1.075       84        0        0        0        0       59       32     0.068       44     18.6       -9       -9       -9       -9    0.000    0.000       12        5     1997  tom.PRO
      Day       13        5     1997      8.4      4.9     20.1   363.88      0.0      8.4      0.0      0.0      0.0      1.6      100      3.5      3.5      100     0.000     0.000     0.000     1.075       85        0        0        0        0       58       32     0.128       83     19.8       -9       -9       -9       -9    0.000    0.000       13        5     1997  tom.PRO
      Day       14        5     1997      0.9      4.8     20.8   363.88      0.0      0.9      0.0      0.0      0.0      1.0       67      2.6      2.6       76     0.000     0.000     0.000     1.075       86        0        0        0        0       58       32     0.097       63     20.9       -9       -9       -9       -9    0.000    0.000       14        5     1997  tom.PRO
      Day       15        5     1997      2.9      4.8     20.6   363.88      0.0      2.9      0.0      0.0      0.0      1.6      100      1.9      1.9       54     0.000     0.000     0.000     1.075       87        0        0        0        0       59       32     0.069       45     21.9       -9       -9       -9       -9    0.000    0.000       15        5     1997  tom.PRO
      Day       16        5     1997     19.4      2.8     19.9   363.88      8.0     27.4      0.0      0.0      0.0      0.9      100      2.1      2.1      100     0.077     0.000     0.000     1.152       88        0        0        0        0       58       32     0.132       86     23.1       -9       -9       -9       -9    0.000    0.000       16        5     1997  tom.PRO
      Day       17        5     1997      1.6      3.4     20.2   363.88      0.0      1.6      0.0      0.0      0.0      1.0      100      2.6      2.6      100     0.000     0.000     0.000     1.152       89        0        0        0        0       58       31     0.135       88     24.4       -9       -9       -9       -9    0.000    0.000       17        5     1997  tom.PRO
      Day       18        5     1997      6.6      3.3     20.0   363.88      0.0      6.6      0.0      0.0      0.0      0.9      100      2.6      2.6      100     0.000     0.000     0.000     1.152       90        0        0        0        0       57       31     0.137       89     25.6       -9       -9       -9       -9    0.000    0.000       18        5     1997  tom.PRO
      Day       19        5     1997      9.5      4.5     20.0   363.88      0.0      9.4      0.1      0.0      0.0      1.1      100      3.5      3.5      100     0.000     0.000     0.000     1.152       91        0        0        0        0       56       31     0.140       91     26.8       -9       -9       -9       -9    0.000    0.000       19        5     1997  tom.PRO
      Day       20        5     1997     13.9      2.8     20.3   363.88      0.0     13.3      0.6      0.0      0.0      0.7      100      2.2      2.2      100     0.000     0.000     0.000     1.152       92        0        0        0        0       56       30     0.141       92     28.1       -9       -9       -9       -9    0.000    0.000       20        5     1997  tom.PRO
      Day       21        5     1997     24.0      2.9     20.3   363.88      0.0     21.3      2.7      0.0      0.0      0.7      100      2.3      2.3      100     0.000     0.000     0.000     1.152       93        0        0        0        0       55       30     0.143       93     29.3       -9       -9       -9       -9    0.000    0.000       21        5     1997  tom.PRO
      Day       22        5     1997     21.3      2.5     19.8   363.88      0.0     19.3      2.0      0.0      0.0      0.5      100      2.0      2.0      100     0.000     0.000     0.000     1.152       94        0        0        0        0       55       30     0.144       94     30.6       -9       -9       -9       -9    0.000    0.000       22        5     1997  tom.PRO
      Day       23        5     1997     24.7      4.0     20.2   363.88      8.0     29.8      2.9      0.0      0.0      0.8      100      3.3      3.3      100     0.077     0.000     0.000     1.229       95        0        0        0        0       54       29     0.145       95     31.8       -9       -9       -9       -9    0.000    0.000       23        5     1997  tom.PRO
      Day       24        5     1997      0.0      4.8     20.3   363.88      0.0      0.0      0.0      0.0      0.0      1.0      100      3.9      3.9      100     0.000     0.000     0.000     1.229       96        0        0        0        0       53       29     0.146       96     33.1       -9       -9       -9       -9    0.000    0.000       24        5     1997  tom.PRO
      Day       25        5     1997     16.6      4.0     20.8   363.88      0.0     16.4      0.2      0.0      0.0      0.8      100      3.3      3.3      100     0.000     0.000     0.000     1.229       97        0        0        0        0       53       29     0.147       96     34.3       -9       -9       -9       -9    0.000    0.000       25        5     1997  tom.PRO
      Day       26        5     1997      0.6      6.0     21.0   363.88      0.0      0.6      0.0      4.7      0.0      1.1       99      5.0      5.0      100     0.000     0.006     0.000     1.223       98        0        0        0        0       52       29     0.147       97     35.6       -9       -9       -9       -9    0.000    0.000       26        5     1997  tom.PRO
      Day       27        5     1997      0.1      8.2     21.0   363.88      0.0      0.1      0.0      1.6      0.0      1.4       91      6.8      6.8      100     0.000     0.003     0.000     1.220       99        0        0        0        0       52       28     0.148       97     36.9       -9       -9       -9       -9    0.000    0.000       27        5     1997  tom.PRO
      Day       28        5     1997      0.0      7.7     21.0   363.88      0.0      0.0      0.0      0.2      0.0      0.3       22      6.5      6.5      100     0.000     0.000     0.000     1.220      100        0        0        0        0       51       28     0.148       98     38.1       -9       -9       -9       -9    0.000    0.000       28        5     1997  tom.PRO
      Day       29        5     1997      0.0      7.6     21.0   363.88      0.0      0.0      0.0      0.0      0.0      0.2       12      6.4      6.4      100     0.000     0.000     0.000     1.220      101        0        0        0        0       51       28     0.149       98     39.4       -9       -9       -9       -9    0.000    0.000       29        5     1997  tom.PRO
      Day       30        5     1997      0.0      6.9     21.0   363.88      8.0      8.0      0.0      0.0      0.0      1.1      100      5.8      5.8      100     0.077     0.000     0.000     1.297      102        0        0        0        0       50       27     0.149       98     40.7       -9       -9       -9       -9    0.000    0.000       30        5     1997  tom.PRO
      Day       31        5     1997     21.9      7.0     21.0   363.88      0.0     21.9      0.0      0.0      0.0      1.2      100      5.8      5.8      100     0.000     0.000     0.000     1.297      103        0        0        0        0       50       27     0.149       98     41.9       -9       -9       -9       -9    0.000    0.000       31        5     1997  tom.PRO
      Day        1        6     1997      1.0      6.4     20.8   363.88      0.0      1.0      0.0      0.0      0.0      1.1      100      5.4      5.4      100     0.000     0.000     0.000     1.297      104        0        0        0        0       49       27     0.149       99     43.2       -9       -9       -9       -9    0.000    0.000        1        6     1997  tom.PRO
      Day        2        6     1997     22.0      5.0     20.5   363.88      0.0     21.7      0.3      0.0      0.0      0.9      100      4.2      4.2      100     0.000     0.000     0.000     1.297      105        0        0        0        0       49       27     0.149       99     44.5       -9       -9       -9       -9    0.000    0.000        2        6     1997  tom.PRO
      Day        3        6     1997      9.4      2.6     20.6   363.88      0.0      9.3      0.1      0.0      0.0      0.4      100      2.2      2.2      100     0.000     0.000     0.000     1.297      106        0        0        0        0       49       26     0.151      100     45.8       -9       -9       -9       -9    0.000    0.000        3        6     1997  tom.PRO
      Day        4        6     1997      9.6      4.3     20.4   363.88      0.0      9.4      0.2      5.0      0.0      0.7      100      3.6      3.6      100     0.000     0.013     0.000     1.284      107        0        0        0        0       49       26     0.151      100     47.0       -9       -9       -9       -9    0.000    0.000        4        6     1997  tom.PRO
      Day        5        6     1997     35.5      3.1     20.1   363.88      0.0     29.0      6.5      5.3      0.0      0.5      100      2.7      2.7      100     0.000     0.016     0.000     1.268      108        0        0        0        0       49       26     0.151      100     48.3       -9       -9       -9       -9    0.000    0.000        5        6     1997  tom.PRO
      Day        6        6     1997     28.1      2.9     20.0   363.88      8.0     32.2      3.9     23.9      0.0      0.5      100      2.5      2.5      100     0.077     0.074     0.000     1.271      109        0        0        0        0       49       26     0.150      100     49.6       -9       -9       -9       -9    0.000    0.000        6        6     1997  tom.PRO
      Day        7        6     1997      5.1      2.5     20.0   363.88      0.0      5.1      0.0     29.1      0.0      0.4      100      2.1      2.1      100     0.000     0.118     0.000     1.153      110        0        0        0        0       49       25     0.150      100     50.9       -9       -9       -9       -9    0.000    0.000        7        6     1997  tom.PRO
      Day        8        6     1997      2.1      4.8     20.4   363.88      0.0      2.1      0.0      5.3      0.0      0.8      100      4.0      4.0      100     0.000     0.033     0.000     1.120      111        0        0        0        0       49       25     0.150      100     52.2       -9       -9       -9       -9    0.000    0.000        8        6     1997  tom.PRO
      Day        9        6     1997      0.5      5.5     20.5   363.88      0.0      0.5      0.0      0.8      0.0      0.9       98      4.6      4.6      100     0.000     0.006     0.000     1.114      112        0        0        0        0       49       25     0.150      100     53.4       -9       -9       -9       -9    0.000    0.000        9        6     1997  tom.PRO
      Day       10        6     1997      7.0      5.5     20.7   363.88      0.0      7.0      0.0      0.1      0.0      0.9      100      4.7      4.7      100     0.000     0.001     0.000     1.114      113        0        0        0        0       49       25     0.150      100     54.7       -9       -9       -9       -9    0.000    0.000       10        6     1997  tom.PRO
      Day       11        6     1997     10.4      5.6     20.8   363.88      0.0     10.4      0.0      0.0      0.0      0.9      100      4.8      4.8      100     0.000     0.000     0.000     1.114      114        0        0        0        0       49       25     0.150      100     54.7       -9       -9       -9       -9    0.000    0.000       11        6     1997  tom.PRO
      Day       12        6     1997      0.6      4.4     20.4   363.88      0.0      0.6      0.0      0.0      0.0      0.7      100      3.7      3.7      100     0.000     0.000     0.000     1.114      115        0        0        0        0       49       24     0.149      100     54.7       -9       -9       -9       -9    0.000    0.000       12        6     1997  tom.PRO
      Day       13        6     1997      0.1      5.6     20.7   363.88      8.0      8.1      0.0      0.0      0.0      0.8      100      4.7      4.7      100     0.077     0.000     0.000     1.190      116        0        0        0        0       49       24     0.149      100     54.7       -9       -9       -9       -9    0.000    0.000       13        6     1997  tom.PRO
      Day       14        6     1997      0.1      5.2     20.8   363.88      0.0      0.1      0.0      0.0      0.0      0.8       93      4.4      4.4      100     0.000     0.000     0.000     1.190      117        0        0        0        0       49       24     0.149      100     54.7       -9       -9       -9       -9    0.000    0.000       14        6     1997  tom.PRO
      Day       15        6     1997      2.3      4.7     20.6   363.88      0.0      2.3      0.0      0.0      0.0      0.8      100      3.9      3.9      100     0.000     0.000     0.000     1.190      118        0        0        0        0       49       24     0.149      100     54.7       -9       -9       -9       -9    0.000    0.000       15        6     1997  tom.PRO
      Day       16        6     1997      0.2      5.7     20.5   363.88      0.0      0.2      0.0      0.0      0.0      0.6       61      4.8      4.8      100     0.000     0.000     0.000     1.190      119        0        0        0        0       49       23     0.149      100     54.7       -9       -9       -9       -9    0.000    0.000       16        6     1997  tom.PRO
      Day       17        6     1997      0.3      6.2     20.8   363.88      0.0      0.3      0.0      0.0      0.0      0.4       44      5.2      5.2      100     0.000     0.000     0.000     1.190      120        0        0        0        0       49       23     0.149      100     54.7       -9       -9       -9       -9    0.000    0.000       17        6     1997  tom.PRO
      Day       18        6     1997      0.7      6.2     20.6   363.88      0.0      0.7      0.0      0.0      0.0      0.7       73      5.2      5.2      100     0.000     0.000     0.000     1.190      121        0        0        0        0       49       23     0.148      100     54.7       -9       -9       -9       -9    0.000    0.000       18        6     1997  tom.PRO
      Day       19        6     1997     16.6      5.2     19.8   363.88      0.0     16.6      0.0      0.0      0.0      0.8      100      4.3      4.3      100     0.000     0.000     0.000     1.190      122        0        0        0        0       49       23     0.148      100     54.7       -9       -9       -9       -9    0.000    0.000       19        6     1997  tom.PRO
      Day       20        6     1997      2.1      5.5     19.8   363.88      8.0     10.1      0.0      0.0      0.0      0.9      100      4.6      4.6      100     0.077     0.000     0.000     1.267      123        0        0        0        0       49       23     0.148      100     54.7       -9       -9       -9       -9    0.000    0.000       20        6     1997  tom.PRO
      Day       21        6     1997      5.6      6.1     20.7   363.88      0.0      5.6      0.0      0.0      0.0      1.0      100      5.1      5.1      100     0.000     0.000     0.000     1.267      124        0        0        0        0       49       23     0.148      100     54.7       -9       -9       -9       -9    0.000    0.000       21        6     1997  tom.PRO
      Day       22        6     1997      0.2      6.4     21.0   363.88      0.0      0.2      0.0      0.0      0.0      1.0       94      5.3      5.3      100     0.000     0.000     0.000     1.267      125        0        0        0        0       49       22     0.148      100     54.7       -9       -9       -9       -9    0.000    0.000       22        6     1997  tom.PRO
      Day       23        6     1997      0.9      6.2     20.8   363.88      0.0      0.9      0.0      0.0      0.0      0.9       95      5.2      5.2      100     0.000     0.000     0.000     1.267      126        0        0        0        0       49       22     0.148      100     54.7       -9       -9       -9       -9    0.000    0.000       23        6     1997  tom.PRO
      Day       24        6     1997      0.2      6.0     21.0   363.88      0.0      0.2      0.0      0.0      0.0      0.3       31      5.0      5.0      100     0.000     0.000     0.000     1.267      127        0        0        0        0       49       22     0.147      100     54.7       -9       -9       -9       -9    0.000    0.000       24        6     1997  tom.PRO
      Day       25        6     1997      0.6      5.8     20.8   363.88      0.0      0.6      0.0      0.0      0.0      0.6       67      4.8      4.8      100     0.000     0.000     0.000     1.267      128        0        0        0        0       49       22     0.147      100     54.7       -9       -9       -9       -9    0.000    0.000       25        6     1997  tom.PRO
      Day       26        6     1997      0.5      5.5     21.0   363.88      0.0      0.5      0.0      0.0      0.0      0.5       59      4.6      4.6      100     0.000     0.000     0.000     1.267      129        0        0        0        0       49       22     0.147      100     54.7       -9       -9       -9       -9    0.000    0.000       26        6     1997  tom.PRO
      Day       27        6     1997      1.0      5.4     20.5   363.88      8.0      9.0      0.0      0.0      0.0      0.8      100      4.5      4.5      100     0.077     0.000     0.000     1.344      130        0        0        0        0       49       21     0.147      100     54.7       -9       -9       -9       -9    0.000    0.000       27        6     1997  tom.PRO
      Day       28        6     1997      0.0      6.5     21.0   363.88      0.0      0.0      0.0      0.0      0.0      0.9      100      5.3      5.3      100     0.000     0.000     0.000     1.344      131        0        0        0        0       49       21     0.147      100     54.7       -9       -9       -9       -9    0.000    0.000       28        6     1997  tom.PRO
      Day       29        6     1997      2.1      6.2     20.8   363.88      0.0      2.1      0.0      0.0      0.0      1.0      100      5.2      5.2      100     0.000     0.000     0.000     1.344      132        0        0        0        0       49       21     0.147      100     54.7       -9       -9       -9       -9    0.000    0.000       29        6     1997  tom.PRO
      Day       30        6     1997      0.0      4.1     21.0   363.88      0.0      0.0      0.0      0.0      0.0      0.7      100      3.4      3.4      100     0.000     0.000     0.000     1.344      133        0        0        0        0       49       21     0.146      100     54.7       -9       -9       -9       -9    0.000    0.000       30        6     1997  tom.PRO
      Day        1        7     1997      2.0      4.2     20.2   363.88      0.0      2.0      0.0      0.0      0.0      0.7      100      3.5      3.5      100     0.000     0.000     0.000     1.344      134        0        0        0        0       49       21     0.146      100     54.7       -9       -9       -9       -9    0.000    0.000        1        7     1997  tom.PRO
      Day        2        7     1997      0.0      5.2     20.8   363.88      0.0      0.0      0.0      0.0      0.0      0.8      100      4.2      4.2      100     0.000     0.000     0.000     1.344      135        0        0        0        0       49       21     0.146      100     54.7       -9       -9       -9       -9    0.000    0.000        2        7     1997  tom.PRO
      Day        3        7     1997      4.2      6.3     20.6   363.88      0.0      4.2      0.0      0.0      0.0      1.0      100      5.2      5.2      100     0.000     0.000     0.000     1.344      136        0        0        0        0       49       21     0.146      100     54.7       -9       -9       -9       -9    0.000    0.000        3        7     1997  tom.PRO
      Day        4        7     1997      2.6      4.4     20.2   363.88      8.0     10.6      0.0      0.0      0.0      0.7      100      3.6      3.6      100     0.077     0.000     0.000     1.421      137        0        0        0        0       49       20     0.146      100     54.7       -9       -9       -9       -9    0.000    0.000        4        7     1997  tom.PRO
      Day        5        7     1997      0.0      5.8     20.5   363.88      0.0      0.0      0.0      0.0      0.0      0.9      100      4.7      4.7      100     0.000     0.000     0.000     1.421      138        0        0        0        0       49       20     0.145      100     54.7       -9       -9       -9       -9    0.000    0.000        5        7     1997  tom.PRO
      Day        6        7     1997      2.2      3.2     20.0   363.88      0.0      2.2      0.0      0.0      0.0      0.5      100      2.6      2.6      100     0.000     0.000     0.000     1.421      139        0        0        0        0       49       20     0.145      100     54.7       -9       -9       -9       -9    0.000    0.000        6        7     1997  tom.PRO
      Day        7        7     1997      1.2      4.9     20.3   363.88      0.0      1.2      0.0      0.0      0.0      0.8      100      4.0      4.0       99     0.000     0.000     0.000     1.421      140        0        0        0        0       49       20     0.144       99     54.7       -9       -9       -9       -9    0.000    0.000        7        7     1997  tom.PRO
      Day        8        7     1997     11.6      3.5     20.2   363.88      0.0     11.6      0.0      0.0      0.0      0.6      100      2.9      2.9      100     0.000     0.000     0.000     1.421      141        0        0        0        0       49       20     0.145      100     54.7       -9       -9       -9       -9    0.000    0.000        8        7     1997  tom.PRO
      Day        9        7     1997      5.2      4.1     19.8   363.88      0.0      5.2      0.0      0.0      0.0      0.7      100      3.4      3.4      100     0.000     0.000     0.000     1.421      142        0        0        0        0       49       20     0.145      100     54.7       -9       -9       -9       -9    0.000    0.000        9        7     1997  tom.PRO
      Day       10        7     1997      0.2      5.7     20.4   363.88      0.0      0.2      0.0      0.0      0.0      0.6       61      4.7      4.7      100     0.000     0.000     0.000     1.421      143        0        0        0        0       49       20     0.145      100     54.7       -9       -9       -9       -9    0.000    0.000       10        7     1997  tom.PRO
      Day       11        7     1997      1.0      4.2     20.0   363.88      8.0      9.0      0.0      0.0      0.0      0.6      100      3.4      3.4      100     0.077     0.000     0.000     1.498      144        0        0        0        0       49       19     0.144      100     54.7       -9       -9       -9       -9    0.000    0.000       11        7     1997  tom.PRO
      Day       12        7     1997      2.6      5.5     20.6   363.88      0.0      2.6      0.0      0.0      0.0      0.9      100      4.5      4.5      100     0.000     0.000     0.000     1.498      145        0        0        0        0       49       19     0.144      100     54.7       -9       -9       -9       -9    0.000    0.000       12        7     1997  tom.PRO
      Day       13        7     1997      8.0      2.4     19.8   363.88      0.0      8.0      0.0      0.0      0.0      0.4      100      2.0      2.0      100     0.000     0.000     0.000     1.498      146        0        0        0        0       49       19     0.144      100     54.7       -9       -9       -9       -9    0.000    0.000       13        7     1997  tom.PRO
      Day       14        7     1997      8.9      2.1     19.6   363.88      0.0      8.9      0.0      0.0      0.0      0.3      100      1.7      1.7      100     0.000     0.000     0.000     1.498      147        0        0        0        0       49       19     0.144      100     54.7       -9       -9       -9       -9    0.000    0.000       14        7     1997  tom.PRO
      Day       15        7     1997      8.2      2.5     19.6   363.88      0.0      8.2      0.0      0.0      0.0      0.4      100      2.1      2.1      100     0.000     0.000     0.000     1.498      148        0        0        0        0       49       19     0.144      100     54.7       -9       -9       -9       -9    0.000    0.000       15        7     1997  tom.PRO
      Day       16        7     1997      2.8      3.4     19.8   363.88      0.0      2.8      0.0      0.0      0.0      0.5      100      2.7      2.7      100     0.000     0.000     0.000     1.498      149        0        0        0        0       49       19     0.144      100     54.7       -9       -9       -9       -9    0.000    0.000       16        7     1997  tom.PRO
      Day       17        7     1997      0.1      3.5     19.9   363.88      0.0      0.1      0.0      0.0      0.0      0.5       96      2.8      2.8      100     0.000     0.000     0.000     1.498      150        0        0        0        0       49       19     0.143      100     54.7       -9       -9       -9       -9    0.000    0.000       17        7     1997  tom.PRO
      Day       18        7     1997      1.1      4.0     20.5   363.88      8.0      9.1      0.0      0.0      0.0      0.6      100      3.3      3.3      100     0.077     0.000     0.000     1.574      151        0        0        0        0       49       19     0.143      100     54.7       -9       -9       -9       -9    0.000    0.000       18        7     1997  tom.PRO
      Day       19        7     1997      0.5      3.2     20.0   363.88      0.0      0.5      0.0      0.0      0.0      0.5      100      2.6      2.6      100     0.000     0.000     0.000     1.574      152        0        0        0        0       49       18     0.143      100     54.7       -9       -9       -9       -9    0.000    0.000       19        7     1997  tom.PRO
      Day       20        7     1997      0.1      4.1     19.9   363.88      0.0      0.1      0.0      0.0      0.0      0.6       94      3.3      3.3      100     0.000     0.000     0.000     1.574      153        0        0        0        0       49       18     0.143      100     54.7       -9       -9       -9       -9    0.000    0.000       20        7     1997  tom.PRO
      Day       21        7     1997      2.6      5.2     20.4   363.88      0.0      2.6      0.0      0.0      0.0      0.8      100      4.2      4.2      100     0.000     0.000     0.000     1.574      154        0        0        0        0       49       18     0.143      100     54.7       -9       -9       -9       -9    0.000    0.000       21        7     1997  tom.PRO
      Day       22        7     1997      0.0      5.3     20.6   363.88      0.0      0.0      0.0      0.0      0.0      0.9      100      4.3      4.3      100     0.000     0.000     0.000     1.574      155        0        0        0        0       49       18     0.142      100     54.7       -9       -9       -9       -9    0.000    0.000       22        7     1997  tom.PRO
      Day       23        7     1997      0.1      7.1     20.4   363.88      0.0      0.1      0.0      0.0      0.0      0.3       28      5.6      5.6      100     0.000     0.000     0.000     1.574      156        0        0        0        0       49       18     0.140      100     54.7       -9       -9       -9       -9    0.000    0.000       23        7     1997  tom.PRO
      Day       24        7     1997      0.0      7.2     21.0   363.88      0.0      0.0      0.0      0.0      0.0      0.1       12      5.1      5.1       91     0.000     0.000     0.000     1.574      157        0        0        0        0       49       18     0.126       91     54.7       -9       -9       -9       -9    0.000    0.000       24        7     1997  tom.PRO
      Day       25        7     1997      1.1      7.2     20.8   363.88      8.0      9.1      0.0      0.0      0.0      1.2      100      5.3      5.3       95     0.077     0.000     0.000     1.651      158        0        0        0        0       49       18     0.131       95     54.7       -9       -9       -9       -9    0.000    0.000       25        7     1997  tom.PRO
      Day       26        7     1997      4.6      6.5     20.8   363.88      0.0      4.6      0.0      0.0      0.0      1.1      100      4.8      4.8       95     0.000     0.000     0.000     1.651      159        0        0        0        0       49       18     0.130       95     54.7       -9       -9       -9       -9    0.000    0.000       26        7     1997  tom.PRO
      Day       27        7     1997      0.3      7.1     21.0   363.88      0.0      0.3      0.0      0.0      0.0      0.7       15      0.0      0.0       -9     0.000     0.000     0.000     1.651      159        0        0        0        0       49       18     0.000       -9     54.7       -9       -9       -9       -9    0.000    0.000       27        7     1997  tom.PRO
   Tot(1)        7        2     1997    434.7    910.6   3416.6   363.88    200.0    615.2     19.5     79.3      0.0    169.7       45    423.8    423.8       79     1.920     0.269     0.000     1.651      159        0        0        0        0       49       18    14.620       72     54.7    8.002  160.048     1.35    0.000    0.000       27        7     1997  tom.PRO
