AquaCrop 7.2 (August 2024) - Output created on (date) : 23-12-2024   at (time) : 03:31:28

   Day Month  Year   DAP Stage    Irri  IrrInt
                                    mm    days
     7     2  1997     1    -9     8.0     1
     8     2  1997     2    -9     0.0     7
     9     2  1997     3    -9     0.0     7
    10     2  1997     4    -9     0.0     7
    11     2  1997     5    -9     0.0     7
    12     2  1997     6    -9     0.0     7
    13     2  1997     7    -9     0.0     7
    14     2  1997     8    -9     8.0     7
    15     2  1997     9    -9     0.0     7
    16     2  1997    10    -9     0.0     7
    17     2  1997    11    -9     0.0     7
    18     2  1997    12    -9     0.0     7
    19     2  1997    13    -9     0.0     7
    20     2  1997    14    -9     0.0     7
    21     2  1997    15    -9     8.0     7
    22     2  1997    16    -9     0.0     7
    23     2  1997    17    -9     0.0     7
    24     2  1997    18    -9     0.0     7
    25     2  1997    19    -9     0.0     7
    26     2  1997    20    -9     0.0     7
    27     2  1997    21    -9     0.0     7
    28     2  1997    22    -9     8.0     7
     1     3  1997    23    -9     0.0     7
     2     3  1997    24    -9     0.0     7
     3     3  1997    25    -9     0.0     7
     4     3  1997    26    -9     0.0     7
     5     3  1997    27    -9     0.0     7
     6     3  1997    28    -9     0.0     7
     7     3  1997    29    -9     8.0     7
     8     3  1997    30    -9     0.0     7
     9     3  1997    31    -9     0.0     7
    10     3  1997    32    -9     0.0     7
    11     3  1997    33    -9     0.0     7
    12     3  1997    34    -9     0.0     7
    13     3  1997    35    -9     0.0     7
    14     3  1997    36    -9     8.0     7
    15     3  1997    37    -9     0.0     7
    16     3  1997    38    -9     0.0     7
    17     3  1997    39    -9     0.0     7
    18     3  1997    40    -9     0.0     7
    19     3  1997    41    -9     0.0     7
    20     3  1997    42    -9     0.0     7
    21     3  1997    43    -9     8.0     7
    22     3  1997    44    -9     0.0     7
    23     3  1997    45    -9     0.0     7
    24     3  1997    46    -9     0.0     7
    25     3  1997    47    -9     0.0     7
    26     3  1997    48    -9     0.0     7
    27     3  1997    49    -9     0.0     7
    28     3  1997    50    -9     8.0     7
    29     3  1997    51    -9     0.0     7
    30     3  1997    52    -9     0.0     7
    31     3  1997    53    -9     0.0     7
     1     4  1997    54    -9     0.0     7
     2     4  1997    55    -9     0.0     7
     3     4  1997    56    -9     0.0     7
     4     4  1997    57    -9     8.0     7
     5     4  1997    58    -9     0.0     7
     6     4  1997    59    -9     0.0     7
     7     4  1997    60    -9     0.0     7
     8     4  1997    61    -9     0.0     7
     9     4  1997    62    -9     0.0     7
    10     4  1997    63    -9     0.0     7
    11     4  1997    64    -9     8.0     7
    12     4  1997    65    -9     0.0     7
    13     4  1997    66    -9     0.0     7
    14     4  1997    67    -9     0.0     7
    15     4  1997    68    -9     0.0     7
    16     4  1997    69    -9     0.0     7
    17     4  1997    70    -9     0.0     7
    18     4  1997    71    -9     8.0     7
    19     4  1997    72    -9     0.0     7
    20     4  1997    73    -9     0.0     7
    21     4  1997    74    -9     0.0     7
    22     4  1997    75    -9     0.0     7
    23     4  1997    76    -9     0.0     7
    24     4  1997    77    -9     0.0     7
    25     4  1997    78    -9     8.0     7
    26     4  1997    79    -9     0.0     7
    27     4  1997    80    -9     0.0     7
    28     4  1997    81    -9     0.0     7
    29     4  1997    82    -9     0.0     7
    30     4  1997    83    -9     0.0     7
     1     5  1997    84    -9     0.0     7
     2     5  1997    85    -9     8.0     7
     3     5  1997    86    -9     0.0     7
     4     5  1997    87    -9     0.0     7
     5     5  1997    88    -9     0.0     7
     6     5  1997    89    -9     0.0     7
     7     5  1997    90    -9     0.0     7
     8     5  1997    91    -9     0.0     7
     9     5  1997    92    -9     8.0     7
    10     5  1997    93    -9     0.0     7
    11     5  1997    94    -9     0.0     7
    12     5  1997    95    -9     0.0     7
    13     5  1997    96    -9     0.0     7
    14     5  1997    97    -9     0.0     7
    15     5  1997    98    -9     0.0     7
    16     5  1997    99    -9     8.0     7
    17     5  1997   100    -9     0.0     7
    18     5  1997   101    -9     0.0     7
    19     5  1997   102    -9     0.0     7
    20     5  1997   103    -9     0.0     7
    21     5  1997   104    -9     0.0     7
    22     5  1997   105    -9     0.0     7
    23     5  1997   106    -9     8.0     7
    24     5  1997   107    -9     0.0     7
    25     5  1997   108    -9     0.0     7
    26     5  1997   109    -9     0.0     7
    27     5  1997   110    -9     0.0     7
    28     5  1997   111    -9     0.0     7
    29     5  1997   112    -9     0.0     7
    30     5  1997   113    -9     8.0     7
    31     5  1997   114    -9     0.0     7
     1     6  1997   115    -9     0.0     7
     2     6  1997   116    -9     0.0     7
     3     6  1997   117    -9     0.0     7
     4     6  1997   118    -9     0.0     7
     5     6  1997   119    -9     0.0     7
     6     6  1997   120    -9     8.0     7
     7     6  1997   121    -9     0.0     7
     8     6  1997   122    -9     0.0     7
     9     6  1997   123    -9     0.0     7
    10     6  1997   124    -9     0.0     7
    11     6  1997   125    -9     0.0     7
    12     6  1997   126    -9     0.0     7
    13     6  1997   127    -9     8.0     7
    14     6  1997   128    -9     0.0     7
    15     6  1997   129    -9     0.0     7
    16     6  1997   130    -9     0.0     7
    17     6  1997   131    -9     0.0     7
    18     6  1997   132    -9     0.0     7
    19     6  1997   133    -9     0.0     7
    20     6  1997   134    -9     8.0     7
    21     6  1997   135    -9     0.0     7
    22     6  1997   136    -9     0.0     7
    23     6  1997   137    -9     0.0     7
    24     6  1997   138    -9     0.0     7
    25     6  1997   139    -9     0.0     7
    26     6  1997   140    -9     0.0     7
    27     6  1997   141    -9     8.0     7
    28     6  1997   142    -9     0.0     7
    29     6  1997   143    -9     0.0     7
    30     6  1997   144    -9     0.0     7
     1     7  1997   145    -9     0.0     7
     2     7  1997   146    -9     0.0     7
     3     7  1997   147    -9     0.0     7
     4     7  1997   148    -9     8.0     7
     5     7  1997   149    -9     0.0     7
     6     7  1997   150    -9     0.0     7
     7     7  1997   151    -9     0.0     7
     8     7  1997   152    -9     0.0     7
     9     7  1997   153    -9     0.0     7
    10     7  1997   154    -9     0.0     7
    11     7  1997   155    -9     8.0     7
    12     7  1997   156    -9     0.0     7
    13     7  1997   157    -9     0.0     7
    14     7  1997   158    -9     0.0     7
    15     7  1997   159    -9     0.0     7
    16     7  1997   160    -9     0.0     7
    17     7  1997   161    -9     0.0     7
    18     7  1997   162    -9     8.0     7
    19     7  1997   163    -9     0.0     7
    20     7  1997   164    -9     0.0     7
    21     7  1997   165    -9     0.0     7
    22     7  1997   166    -9     0.0     7
    23     7  1997   167    -9     0.0     7
    24     7  1997   168    -9     0.0     7
    25     7  1997   169    -9     8.0     7
    26     7  1997   170    -9     0.0    -9
    27     7  1997    -9    -9     0.0    -9
