AquaCrop 7.2 (August 2024) - Output created on (date) : 08-12-2024   at (time) : 23:32:15
Biomass and Yield at Multiple cuttings

    Nr   Day  Month Year   DAP Interval  Biomass    Sum(B)   Dry-Yield  Sum(Y) Fresh-Yield  Sum(Y)
                                 days     ton/ha    ton/ha    ton/ha    ton/ha    ton/ha    ton/ha
     0    22     1  1996                             0.000               0.000               0.000
  9999    11     5  1996                            11.800               7.434             148.680
