AquaCrop 7.2 (August 2024) - Output created on (date) : 23-12-2024   at (time) : 03:31:28
Biomass and Yield at Multiple cuttings

    Nr   Day  Month Year   DAP Interval  Biomass    Sum(B)   Dry-Yield  Sum(Y) Fresh-Yield  Sum(Y)
                                 days     ton/ha    ton/ha    ton/ha    ton/ha    ton/ha    ton/ha
     0     7     2  1997                             0.000               0.000               0.000
  9999    28     7  1997                            14.620               8.002             160.048
