AquaCrop 7.2 (August 2024) - Output created on (date) : 11-12-2024   at (time) : 19:42:06
Biomass and Yield at Multiple cuttings

    Nr   Day  Month Year   DAP Interval  Biomass    Sum(B)   Dry-Yield  Sum(Y) Fresh-Yield  Sum(Y)
                                 days     ton/ha    ton/ha    ton/ha    ton/ha    ton/ha    ton/ha
     0    22     1  1996                             0.000               0.000               0.000
  9999    11     5  1996                            10.357               5.075             101.497
