AquaCrop 7.2 (August 2024) - Output created on (date) : 09-12-2024   at (time) : 19:45:38

   Day Month  Year   DAP Stage   WC(1.20)   Rain     Irri   Surf   Infilt   RO    Drain       CR    Zgwt       Ex       E     E/Ex     Trx       Tr  Tr/Trx    ETx      ET  ET/ETx      GD       Z     StExp  StSto  StSen StSalt StWeed   CC      CCw     StTr  Kc(Tr)     Trx       Tr      TrW  Tr/Trx   WP    Biomass     HI    Y(dry)  Y(fresh)  Brelative    WPet      Bin     Bout  WC(1.20) Wr(1.00)     Z       Wr    Wr(SAT)    Wr(FC)   Wr(exp)   Wr(sto)   Wr(sen)   Wr(PWP)    SaltIn    SaltOut   SaltUp   Salt(1.20)  SaltZ     Z       ECe    ECsw   StSalt  Zgwt    ECgw       WC01       WC 2       WC 3       WC 4       WC 5       WC 6       WC 7       WC 8       WC 9       WC10       WC11       WC12      ECe01      ECe 2      ECe 3      ECe 4      ECe 5      ECe 6      ECe 7      ECe 8      ECe 9      ECe10      ECe11      ECe12     Rain       ETo      Tmin      Tavg      Tmax      CO2
                                      mm      mm       mm     mm     mm     mm       mm       mm      m        mm       mm     %        mm       mm    %        mm      mm       %  degC-day     m       %      %      %      %      %      %       %       %       -        mm       mm       mm    %     g/m2    ton/ha      %    ton/ha   ton/ha       %       kg/m3   ton/ha   ton/ha      mm       mm       m       mm        mm        mm        mm        mm        mm         mm    ton/ha    ton/ha    ton/ha    ton/ha    ton/ha     m      dS/m    dS/m      %     m      dS/m       0.05       0.15       0.25       0.35       0.45       0.55       0.65       0.75       0.85       0.95       1.05       1.15       0.05       0.15       0.25       0.35       0.45       0.55       0.65       0.75       0.85       0.95       1.05       1.15       mm        mm     degC      degC      degC       ppm
    22     1  1996     1     1     260.7     0.0      0.0    0.0    0.0    0.0      0.0      0.0   -9.90      4.3      3.3     76      0.0      0.0   100      4.3     3.3      76     16.4    0.30     -9     -9     -9      0     -9     0.0     0.0      0    -9.00      0.0      0.0      0.0   100     0.0     0.000    -9.9    0.000    0.000      -9        0.00    0.000    0.000     260.7    216.7    0.30    62.7     123.0      66.0      60.6      46.8      40.8      30.0    0.000     0.000     0.000     0.000     0.000    0.30     0.00    0.00      0   -9.90   -9.00       18.7       22.0       22.0       22.0       22.0       22.0       22.0       22.0       22.0       22.0       22.0       22.0        0.0        0.0        0.0        0.0        0.0        0.0        0.0        0.0        0.0        0.0        0.0        0.0      0.0       3.9      18.9      24.2      29.5    362.74
    23     1  1996     2     1     257.6     0.1      0.0    0.0    0.1    0.0      0.0      0.0   -9.90      4.4      3.2     73      0.0      0.0   100      4.4     3.2      73     16.5    0.30     -9     -9     -9      0     -9     0.0     0.0      0    -9.00      0.0      0.0      0.0   100     0.0     0.000    -9.9    0.000    0.000      -9        0.00    0.000    0.000     257.6    213.6    0.30    59.6     123.0      66.0      60.6      46.9      40.8      30.0    0.000     0.000     0.000     0.000     0.000    0.30     0.00    0.00      0   -9.90   -9.00       15.6       22.0       22.0       22.0       22.0       22.0       22.0       22.0       22.0       22.0       22.0       22.0        0.0        0.0        0.0        0.0        0.0        0.0        0.0        0.0        0.0        0.0        0.0        0.0      0.1       4.0      19.0      24.4      29.7    362.74
    24     1  1996     3     1     255.0     0.7      0.0    0.0    0.7    0.0      0.0      0.0   -9.90      4.2      3.3     78      0.0      0.0   100      4.2     3.3      78     16.9    0.30     -9     -9     -9      0     -9     0.0     0.0      0    -9.00      0.0      0.0      0.0   100     0.0     0.000    -9.9    0.000    0.000      -9        0.00    0.000    0.000     255.0    211.0    0.30    57.0     123.0      66.0      60.6      46.7      40.8      30.0    0.000     0.000     0.000     0.000     0.000    0.30     0.00    0.00      0   -9.90   -9.00       13.0       22.0       22.0       22.0       22.0       22.0       22.0       22.0       22.0       22.0       22.0       22.0        0.0        0.0        0.0        0.0        0.0        0.0        0.0        0.0        0.0        0.0        0.0        0.0      0.7       3.8      19.9      24.2      28.6    362.74
    25     1  1996     4     1     253.0     0.5      0.0    0.0    0.5    0.0      0.0      0.0   -9.90      4.4      2.5     57      0.0      0.0   100      4.4     2.5      57     17.2    0.30     -9     -9     -9      0     -9     0.0     0.0      0    -9.00      0.0      0.0      0.0   100     0.0     0.000    -9.9    0.000    0.000      -9        0.00    0.000    0.000     253.0    209.0    0.30    55.0     123.0      66.0      60.6      46.9      40.8      30.0    0.000     0.000     0.000     0.000     0.000    0.30     0.00    0.00      0   -9.90   -9.00       11.0       22.0       22.0       22.0       22.0       22.0       22.0       22.0       22.0       22.0       22.0       22.0        0.0        0.0        0.0        0.0        0.0        0.0        0.0        0.0        0.0        0.0        0.0        0.0      0.5       4.0      20.5      25.0      29.5    362.74
    26     1  1996     5     2     251.9     1.5      0.0    0.0    1.5    0.0      0.0      0.0   -9.90      4.2      2.5     59      0.1      0.1   100      4.3     2.6      60     17.2    0.33     -9      0      0      0      0     0.8     0.8      0     0.01      0.1      0.1      0.1   100    17.7     0.003    -9.9    0.000    0.000     100        0.00    0.000    0.000     251.9    207.9    0.33    59.8     133.9      71.8      64.3      51.0      43.4      32.6    0.000     0.000     0.000     0.000     0.000    0.33     0.00    0.00      0   -9.90   -9.00       10.0       21.9       22.0       22.0       22.0       22.0       22.0       22.0       22.0       22.0       22.0       22.0        0.0        0.0        0.0        0.0        0.0        0.0        0.0        0.0        0.0        0.0        0.0        0.0      1.5       3.9      20.4      24.5      28.6    362.74
    27     1  1996     6     2     250.5     0.0      0.0    0.0    0.0    0.0      0.0      0.0   -9.90      4.7      1.3     28      0.1      0.1   100      4.8     1.4      29     18.0    0.35      7      0      0      0      0     0.8     0.8      0     0.02      0.1      0.1      0.1   100    17.7     0.005    -9.9    0.000    0.000     100        0.00    0.000    0.000     250.5    206.5    0.35    63.8     143.9      77.2      69.9      55.4      47.1      35.1    0.000     0.000     0.000     0.000     0.000    0.35     0.00    0.00      0   -9.90   -9.00        8.7       21.9       22.0       22.0       22.0       22.0       22.0       22.0       22.0       22.0       22.0       22.0        0.0        0.0        0.0        0.0        0.0        0.0        0.0        0.0        0.0        0.0        0.0        0.0      0.0       4.4      22.0      25.9      29.8    362.74
    28     1  1996     7     2     249.5     0.1      0.0    0.0    0.1    0.0      0.0      0.0   -9.90      4.5      1.0     23      0.1      0.1   100      4.6     1.1      24     17.9    0.37      8      0      0      0      0     0.9     0.9      0     0.02      0.1      0.1      0.1   100    17.7     0.008    -9.9    0.000    0.000      99        0.00    0.000    0.000     249.5    205.5    0.37    67.8     153.2      82.2      74.1      58.7      50.0      37.4    0.000     0.000     0.000     0.000     0.000    0.37     0.00    0.00      0   -9.90   -9.00        7.7       21.8       22.0       22.0       22.0       22.0       22.0       22.0       22.0       22.0       22.0       22.0        0.0        0.0        0.0        0.0        0.0        0.0        0.0        0.0        0.0        0.0        0.0        0.0      0.1       4.2      21.8      25.7      29.6    362.74
    29     1  1996     8     2     249.0     1.7      0.0    0.0    1.7    0.0      0.0      0.0   -9.90      4.0      2.1     53      0.1      0.1   100      4.1     2.2      54     17.6    0.39      4      0      0      0      0     1.1     1.1      0     0.02      0.1      0.1      0.1   100    17.7     0.012    -9.9    0.000    0.000      99        0.00    0.000    0.000     249.0    205.0    0.39    71.9     161.9      86.9      77.5      61.4      52.3      39.5    0.000     0.000     0.000     0.000     0.000    0.39     0.00    0.00      0   -9.90   -9.00        7.3       21.7       22.0       22.0       22.0       22.0       22.0       22.0       22.0       22.0       22.0       22.0        0.0        0.0        0.0        0.0        0.0        0.0        0.0        0.0        0.0        0.0        0.0        0.0      1.7       3.7      21.2      24.6      28.0    362.74
    30     1  1996     9     2     248.2     0.0      0.0    0.0    0.0    0.0      0.0      0.0   -9.90      4.7      0.7     16      0.1      0.1   100      4.8     0.8      17     17.2    0.41      9      0      0      0      0     1.2     1.2      0     0.02      0.1      0.1      0.1   100    17.7     0.016    -9.9    0.000    0.000      98        0.00    0.000    0.000     248.2    204.2    0.41    75.5     170.1      91.3      82.6      65.5      55.7      41.5    0.000     0.000     0.000     0.000     0.000    0.41     0.00    0.00      0   -9.90   -9.00        6.6       21.6       22.0       22.0       22.0       22.0       22.0       22.0       22.0       22.0       22.0       22.0        0.0        0.0        0.0        0.0        0.0        0.0        0.0        0.0        0.0        0.0        0.0        0.0      0.0       4.4      20.4      24.4      28.4    362.74
    31     1  1996    10     2     247.6     0.0      0.0    0.0    0.0    0.0      0.0      0.0   -9.90      4.2      0.5     13      0.1      0.1   100      4.3     0.6      15     16.0    0.43      7      0      0      0      0     1.3     1.3      0     0.03      0.1      0.1      0.1   100    17.7     0.020    -9.9    0.000    0.000      98        0.00    0.000    0.000     247.6    203.6    0.43    79.0     177.9      95.5      85.5      67.7      57.7      43.4    0.000     0.000     0.000     0.000     0.000    0.43     0.00    0.00      0   -9.90   -9.00        6.0       21.5       22.0       22.0       22.0       22.0       22.0       22.0       22.0       22.0       22.0       22.0        0.0        0.0        0.0        0.0        0.0        0.0        0.0        0.0        0.0        0.0        0.0        0.0      0.0       3.9      18.2      23.0      27.8    362.74
     1     2  1996    11     2     246.9     0.0      0.0    0.0    0.0    0.0      0.0      0.0   -9.90      4.7      0.5     11      0.1      0.1   100      4.8     0.7      14     16.2    0.45      9      0      0      0      0     1.5     1.5      0     0.03      0.1      0.1      0.1   100    17.7     0.025    -9.9    0.000    0.000      97        0.00    0.000    0.000     246.9    202.9    0.45    82.4     185.4      99.5      90.1      71.4      60.7      45.2    0.000     0.000     0.000     0.000     0.000    0.45     0.00    0.00      0   -9.90   -9.00        5.5       21.4       22.0       22.0       22.0       22.0       22.0       22.0       22.0       22.0       22.0       22.0        0.0        0.0        0.0        0.0        0.0        0.0        0.0        0.0        0.0        0.0        0.0        0.0      0.0       4.4      18.4      23.6      28.8    362.74
     2     2  1996    12     2     246.3     0.0      0.0    0.0    0.0    0.0      0.0      0.0   -9.90      4.5      0.4     10      0.1      0.1   100      4.6     0.6      12     16.3    0.47      8      0      0      0      0     1.7     1.7      0     0.03      0.1      0.1      0.1   100    17.7     0.031    -9.9    0.000    0.000      97        0.00    0.000    0.000     246.3    202.3    0.47    85.7     192.7     103.4      93.2      73.8      62.9      47.0    0.000     0.000     0.000     0.000     0.000    0.47     0.00    0.00      0   -9.90   -9.00        5.1       21.3       22.0       22.0       22.0       22.0       22.0       22.0       22.0       22.0       22.0       22.0        0.0        0.0        0.0        0.0        0.0        0.0        0.0        0.0        0.0        0.0        0.0        0.0      0.0       4.2      18.6      23.8      29.0    362.74
     3     2  1996    13     2     245.8     0.0      0.0    0.0    0.0    0.0      0.0      0.0   -9.90      4.5      0.4      9      0.1      0.1   100      4.6     0.5      12     15.9    0.49      8      0      0      0      0     1.9     1.9      0     0.04      0.1      0.1      0.1   100    17.7     0.037    -9.9    0.000    0.000      96        0.00    0.000    0.000     245.8    201.8    0.49    88.9     199.6     107.1      96.6      76.5      65.2      48.7    0.000     0.000     0.000     0.000     0.000    0.49     0.00    0.00      0   -9.90   -9.00        5.0       20.8       22.0       22.0       22.0       22.0       22.0       22.0       22.0       22.0       22.0       22.0        0.0        0.0        0.0        0.0        0.0        0.0        0.0        0.0        0.0        0.0        0.0        0.0      0.0       4.2      17.7      23.5      29.4    362.74
     4     2  1996    14     2     245.2     0.0      0.0    0.0    0.0    0.0      0.0      0.0   -9.90      4.6      0.4      8      0.2      0.2   100      4.8     0.6      11     16.1    0.50      9      0      0      0      0     2.1     2.1      0     0.04      0.2      0.2      0.2   100    17.7     0.044    -9.9    0.000    0.000      95        0.00    0.000    0.000     245.2    201.2    0.50    92.0     206.4     110.8     100.3      79.4      67.6      50.3    0.000     0.000     0.000     0.000     0.000    0.50     0.00    0.00      0   -9.90   -9.00        5.0       20.2       22.0       22.0       22.0       22.0       22.0       22.0       22.0       22.0       22.0       22.0        0.0        0.0        0.0        0.0        0.0        0.0        0.0        0.0        0.0        0.0        0.0        0.0      0.0       4.4      18.2      23.6      29.1    362.74
     5     2  1996    15     2     244.7     0.0      0.0    0.0    0.0    0.0      0.0      0.0   -9.90      4.4      0.3      8      0.2      0.2   100      4.6     0.5      11     15.6    0.52      8      0      0      0      0     2.3     2.3      0     0.04      0.2      0.2      0.2   100    17.7     0.052    -9.9    0.000    0.000      95        0.00    0.000    0.000     244.7    200.7    0.52    95.0     213.0     114.3     103.1      81.6      69.5      52.0    0.000     0.000     0.000     0.000     0.000    0.52     0.00    0.00      0   -9.90   -9.00        5.0       19.7       22.0       22.0       22.0       22.0       22.0       22.0       22.0       22.0       22.0       22.0        0.0        0.0        0.0        0.0        0.0        0.0        0.0        0.0        0.0        0.0        0.0        0.0      0.0       4.2      17.3      23.2      29.1    362.74
     6     2  1996    16     2     244.2     0.0      0.0    0.0    0.0    0.0      0.0      0.0   -9.90      4.5      0.3      7      0.2      0.2   100      4.7     0.5      11     15.4    0.54      8      0      0      0      0     2.6     2.6      0     0.05      0.2      0.2      0.2   100    17.7     0.060    -9.9    0.000    0.000      94        0.00    0.000    0.000     244.2    200.2    0.54    97.9     219.4     117.8     106.4      84.3      71.8      53.5    0.000     0.000     0.000     0.000     0.000    0.54     0.00    0.00      0   -9.90   -9.00        5.0       19.2       22.0       22.0       22.0       22.0       22.0       22.0       22.0       22.0       22.0       22.0        0.0        0.0        0.0        0.0        0.0        0.0        0.0        0.0        0.0        0.0        0.0        0.0      0.0       4.3      16.7      22.9      29.2    362.74
     7     2  1996    17     2     243.7     0.0      0.0    0.0    0.0    0.0      0.0      0.0   -9.90      3.8      0.3      7      0.2      0.2   100      4.0     0.5      12     16.4    0.55      6      0      0      0      0     2.9     2.9      0     0.05      0.2      0.2      0.2   100    17.7     0.070    -9.9    0.000    0.000      93        0.00    0.000    0.000     243.7    199.7    0.55   100.8     225.7     121.1     107.9      85.5      72.9      55.1    0.000     0.000     0.000     0.000     0.000    0.55     0.00    0.00      0   -9.90   -9.00        5.0       18.7       22.0       22.0       22.0       22.0       22.0       22.0       22.0       22.0       22.0       22.0        0.0        0.0        0.0        0.0        0.0        0.0        0.0        0.0        0.0        0.0        0.0        0.0      0.0       3.7      18.7      23.7      28.7    362.74
     8     2  1996    18     2     243.1     0.0      0.0    0.0    0.0    0.0      0.0      0.0   -9.90      4.5      0.3      7      0.3      0.3   100      4.8     0.6      12     16.1    0.57      8      0      0      0      0     3.3     3.3      0     0.06      0.3      0.3      0.3   100    17.7     0.081    -9.9    0.000    0.000      93        0.00    0.000    0.000     243.1    199.1    0.57   103.5     231.9     124.4     112.6      89.2      75.9      56.6    0.000     0.000     0.000     0.000     0.000    0.57     0.00    0.00      0   -9.90   -9.00        5.0       18.1       22.0       22.0       22.0       22.0       22.0       22.0       22.0       22.0       22.0       22.0        0.0        0.0        0.0        0.0        0.0        0.0        0.0        0.0        0.0        0.0        0.0        0.0      0.0       4.3      18.2      23.9      29.6    362.74
     9     2  1996    19     2     242.5     0.0      0.0    0.0    0.0    0.0      0.0      0.0   -9.90      4.6      0.3      7      0.3      0.3   100      4.9     0.6      12     16.1    0.58      9      0      0      0      0     3.7     3.7      0     0.07      0.3      0.3      0.3   100    17.7     0.093    -9.9    0.000    0.000      92        0.00    0.000    0.000     242.5    198.5    0.58   106.2     237.9     127.6     115.8      91.8      78.1      58.0    0.000     0.000     0.000     0.000     0.000    0.58     0.00    0.00      0   -9.90   -9.00        5.0       17.5       22.0       22.0       22.0       22.0       22.0       22.0       22.0       22.0       22.0       22.0        0.0        0.0        0.0        0.0        0.0        0.0        0.0        0.0        0.0        0.0        0.0        0.0      0.0       4.5      18.3      24.0      29.7    362.74
    10     2  1996    20     2     242.0     0.0      0.0    0.0    0.0    0.0      0.0      0.0   -9.90      4.0      0.3      6      0.3      0.3   100      4.3     0.6      13     16.7    0.59      7      0      0      0      0     4.1     4.1      0     0.08      0.3      0.3      0.3   100    17.7     0.107    -9.9    0.000    0.000      91        0.00    0.000    0.000     242.0    198.0    0.59   108.8     243.8     130.8     117.1      92.8      79.1      59.5    0.000     0.000     0.000     0.000     0.000    0.59     0.00    0.00      0   -9.90   -9.00        5.0       17.0       22.0       22.0       22.0       22.0       22.0       22.0       22.0       22.0       22.0       22.0        0.0        0.0        0.0        0.0        0.0        0.0        0.0        0.0        0.0        0.0        0.0        0.0      0.0       3.9      19.4      24.4      29.4    362.74
    11     2  1996    21     2     241.3     0.0      0.0    0.0    0.0    0.0      0.0      0.0   -9.90      4.4      0.3      6      0.4      0.4   100      4.8     0.6      13     16.8    0.61      8      0      0      0      0     4.6     4.6      0     0.09      0.4      0.4      0.4   100    17.7     0.122    -9.9    0.000    0.000      91        0.00    0.000    0.000     241.3    197.3    0.61   111.2     249.6     133.9     121.1      95.9      81.7      60.9    0.000     0.000     0.000     0.000     0.000    0.61     0.00    0.00      0   -9.90   -9.00        5.0       16.3       22.0       22.0       22.0       22.0       22.0       22.0       22.0       22.0       22.0       22.0        0.0        0.0        0.0        0.0        0.0        0.0        0.0        0.0        0.0        0.0        0.0        0.0      0.0       4.3      19.6      24.8      30.0    362.74
    12     2  1996    22     2     240.7     0.8      0.0    0.0    0.8    0.0      0.0      0.0   -9.90      4.0      1.0     24      0.4      0.4   100      4.4     1.4      31     17.5    0.62      7      0      0      0      0     5.2     5.2      0     0.10      0.4      0.4      0.4   100    17.7     0.139    -9.9    0.000    0.000      90        0.00    0.000    0.000     240.7    196.7    0.62   113.7     255.2     137.0     123.0      97.5      83.0      62.3    0.000     0.000     0.000     0.000     0.000    0.62     0.00    0.00      0   -9.90   -9.00        5.0       15.7       22.0       22.0       22.0       22.0       22.0       22.0       22.0       22.0       22.0       22.0        0.0        0.0        0.0        0.0        0.0        0.0        0.0        0.0        0.0        0.0        0.0        0.0      0.8       4.0      21.0      25.1      29.3    362.74
    13     2  1996    23     2     240.4     0.9      0.0    0.0    0.9    0.0      0.0      0.0   -9.90      2.4      1.0     42      0.3      0.3   100      2.6     1.2      47     17.1    0.64      2      0      0      0      0     5.9     5.9      0     0.11      0.3      0.3      0.3   100    17.7     0.158    -9.9    0.000    0.000      90        0.00    0.000    0.000     240.4    196.4    0.64   116.4     260.8     140.0     121.0      95.8      82.0      63.6    0.000     0.000     0.000     0.000     0.000    0.64     0.00    0.00      0   -9.90   -9.00        5.0       15.4       22.0       22.0       22.0       22.0       22.0       22.0       22.0       22.0       22.0       22.0        0.0        0.0        0.0        0.0        0.0        0.0        0.0        0.0        0.0        0.0        0.0        0.0      0.9       2.4      21.1      24.1      27.2    362.74
    14     2  1996    24     2     239.7     0.3      0.0    0.0    0.3    0.0      0.0      0.0   -9.90      4.2      0.5     12      0.5      0.5   100      4.8     1.0      22     17.6    0.65      8      0      0      0      0     6.6     6.6      0     0.12      0.5      0.5      0.5   100    17.7     0.179    -9.9    0.000    0.000      89        0.00    0.000    0.000     239.7    195.7    0.65   118.6     266.3     142.9     129.3     102.4      87.2      65.0    0.000     0.000     0.000     0.000     0.000    0.65     0.00    0.00      0   -9.90   -9.00        5.0       14.7       22.0       22.0       22.0       22.0       22.0       22.0       22.0       22.0       22.0       22.0        0.0        0.0        0.0        0.0        0.0        0.0        0.0        0.0        0.0        0.0        0.0        0.0      0.3       4.3      21.3      26.1      30.8    362.74
    15     2  1996    25     2     239.0     0.1      0.0    0.0    0.1    0.0      0.0      0.0   -9.90      3.8      0.3      7      0.5      0.5   100      4.3     0.8      19     16.7    0.66      7      0      0      0      0     7.3     7.3      0     0.13      0.5      0.5      0.5   100    17.7     0.202    -9.9    0.000    0.000      88        0.00    0.000    0.000     239.0    195.0    0.66   120.8     271.8     145.8     130.7     103.5      88.2      66.3    0.000     0.000     0.000     0.000     0.000    0.66     0.00    0.00      0   -9.90   -9.00        5.0       14.0       22.0       22.0       22.0       22.0       22.0       22.0       22.0       22.0       22.0       22.0        0.0        0.0        0.0        0.0        0.0        0.0        0.0        0.0        0.0        0.0        0.0        0.0      0.1       3.9      19.4      24.1      28.8    362.74
    16     2  1996    26     2     238.2     0.2      0.0    0.0    0.2    0.0      0.0      0.0   -9.90      4.0      0.4      9      0.6      0.6   100      4.6     1.0      22     16.6    0.68      8      0      0      0      0     8.2     8.2      0     0.15      0.6      0.6      0.6   100    17.7     0.228    -9.9    0.000    0.000      88        0.00    0.000    0.000     238.2    194.2    0.68   122.9     277.1     148.7     134.1     106.2      90.4      67.6    0.000     0.000     0.000     0.000     0.000    0.68     0.00    0.00      0   -9.90   -9.00        5.0       13.2       22.0       22.0       22.0       22.0       22.0       22.0       22.0       22.0       22.0       22.0        0.0        0.0        0.0        0.0        0.0        0.0        0.0        0.0        0.0        0.0        0.0        0.0      0.2       4.2      19.3      24.5      29.7    362.74
    17     2  1996    27     2     237.3     0.0      0.0    0.0    0.0    0.0      0.0      0.0   -9.90      4.0      0.2      4      0.7      0.7   100      4.8     0.9      18     16.6    0.69     10      0      0      0      0     9.2     9.2      0     0.16      0.7      0.7      0.7   100    17.7     0.258    -9.9    0.000    0.000      87        0.00    0.000    0.000     237.3    193.3    0.69   124.8     282.4     151.5     137.0     108.5      92.4      68.9    0.000     0.000     0.000     0.000     0.000    0.69     0.00    0.00      0   -9.90   -9.00        5.0       12.3       22.0       22.0       22.0       22.0       22.0       22.0       22.0       22.0       22.0       22.0        0.0        0.0        0.0        0.0        0.0        0.0        0.0        0.0        0.0        0.0        0.0        0.0      0.0       4.3      19.2      24.6      30.0    362.74
    18     2  1996    28     2     236.4     0.0      0.0    0.0    0.0    0.0      0.0      0.0   -9.90      4.0      0.1      4      0.8      0.8   100      4.8     0.9      20     16.4    0.70     11      0      0      0      0    10.3    10.3      0     0.18      0.8      0.8      0.8   100    17.7     0.290    -9.9    0.000    0.000      87        0.00    0.000    0.000     236.4    192.4    0.70   126.7     287.6     154.3     139.8     110.7      94.2      70.1    0.000     0.000     0.000     0.000     0.000    0.70     0.00    0.00      0   -9.90   -9.00        5.0       11.4       22.0       22.0       22.0       22.0       22.0       22.0       22.0       22.0       22.0       22.0        0.0        0.0        0.0        0.0        0.0        0.0        0.0        0.0        0.0        0.0        0.0        0.0      0.0       4.4      18.9      24.4      30.0    362.74
    19     2  1996    29     2     235.6     1.5      0.0    0.0    1.5    0.0      0.0      0.0   -9.90      3.3      1.6     48      0.7      0.7   100      4.0     2.3      57     17.1    0.71      7      0      0      0      0    11.5    11.5      0     0.20      0.7      0.7      0.7   100    17.7     0.326    -9.9    0.000    0.000      86        0.00    0.000    0.000     235.6    191.6    0.71   128.6     292.7     157.1     139.9     110.8      94.5      71.4    0.000     0.000     0.000     0.000     0.000    0.71     0.00    0.00      0   -9.90   -9.00        5.0       10.6       22.0       22.0       22.0       22.0       22.0       22.0       22.0       22.0       22.0       22.0        0.0        0.0        0.0        0.0        0.0        0.0        0.0        0.0        0.0        0.0        0.0        0.0      1.5       3.6      20.2      24.3      28.4    362.74
    20     2  1996    30     2     234.7     0.7      0.0    0.0    0.7    0.0      0.0      0.0   -9.90      3.1      0.8     25      0.8      0.8   100      4.0     1.6      40     17.7    0.73      8      0      0      0      0    12.9    12.9      0     0.23      0.8      0.8      0.8   100    17.7     0.366    -9.9    0.000    0.000      85        0.00    0.000    0.000     234.7    190.7    0.73   130.4     297.8     159.8     142.1     112.6      96.0      72.6    0.000     0.000     0.000     0.000     0.000    0.73     0.00    0.00      0   -9.90   -9.00        5.0        9.7       22.0       22.0       22.0       22.0       22.0       22.0       22.0       22.0       22.0       22.0        0.0        0.0        0.0        0.0        0.0        0.0        0.0        0.0        0.0        0.0        0.0        0.0      0.7       3.6      21.4      25.4      29.4    362.74
    21     2  1996    31     2     233.7     0.1      0.0    0.0    0.1    0.0      0.0      0.0   -9.90      2.9      0.2      6      0.9      0.9   100      3.8     1.0      28     18.1    0.74      8      0      0      0      0    14.4    14.4      0     0.25      0.9      0.9      0.9   100    17.7     0.410    -9.9    0.000    0.000      85        0.00    0.000    0.000     233.7    189.7    0.74   132.2     302.8     162.5     144.0     114.0      97.3      73.8    0.000     0.000     0.000     0.000     0.000    0.74     0.00    0.00      0   -9.90   -9.00        5.0        9.6       21.1       22.0       22.0       22.0       22.0       22.0       22.0       22.0       22.0       22.0        0.0        0.0        0.0        0.0        0.0        0.0        0.0        0.0        0.0        0.0        0.0        0.0      0.1       3.4      22.1      26.1      30.0    362.74
    22     2  1996    32     2     233.4     2.7      0.0    0.0    2.7    0.0      0.0      0.0   -9.90      2.3      2.3    100      0.8      0.8   100      3.1     3.1     100     18.6    0.75      4      0      0      0      0    16.2    16.2      0     0.28      0.8      0.8      0.8   100    17.7     0.460    -9.9    0.000    0.000      84        0.00    0.000    0.000     233.4    189.4    0.75   134.5     307.7     165.1     144.1     114.2      97.5      75.1    0.000     0.000     0.000     0.000     0.000    0.75     0.00    0.00      0   -9.90   -9.00        5.4        9.6       20.4       22.0       22.0       22.0       22.0       22.0       22.0       22.0       22.0       22.0        0.0        0.0        0.0        0.0        0.0        0.0        0.0        0.0        0.0        0.0        0.0        0.0      2.7       2.8      23.2      25.6      28.0    362.74
    23     2  1996    33     2     250.2    18.3      0.0    0.0   18.3    0.0      0.0      0.0   -9.90      1.1      1.1    100      0.4      0.4   100      1.5     1.5     100     16.9    0.76      0      0      0      0      0    18.3    18.3      0     0.31      0.4      0.4      0.4   100    17.7     0.515    -9.9    0.000    0.000      84        0.00    0.000    0.000     250.2    206.2    0.76   153.9     312.6     167.8     141.5     112.1      96.1      76.3    0.000     0.000     0.000     0.000     0.000    0.76     0.00    0.00      0   -9.90   -9.00       22.2        9.6       20.4       22.0       22.0       22.0       22.0       22.0       22.0       22.0       22.0       22.0        0.0        0.0        0.0        0.0        0.0        0.0        0.0        0.0        0.0        0.0        0.0        0.0     18.3       1.4      22.5      23.9      25.2    362.74
    24     2  1996    34     2     259.6    12.1      0.0    0.0   12.0    0.1      0.0      0.0   -9.90      1.7      1.7    100      0.8      0.8   100      2.5     2.5     100     17.8    0.77      0      0      0      0      0    20.7    20.7      0     0.35      0.8      0.8      0.8   100    17.7     0.577    -9.9    0.000    0.000      83        0.00    0.000    0.000     259.6    215.6    0.77   166.0     317.5     170.4     147.0     116.5      99.6      77.4    0.000     0.000     0.000     0.000     0.000    0.77     0.00    0.00      0   -9.90   -9.00       31.5        9.8       20.4       22.0       22.0       22.0       22.0       22.0       22.0       22.0       22.0       22.0        0.0        0.0        0.0        0.0        0.0        0.0        0.0        0.0        0.0        0.0        0.0        0.0     12.1       2.3      22.4      24.8      27.1    362.74
    25     2  1996    35     3     257.4     1.9      0.0    0.0    1.9    0.0      0.0      0.0   -9.90      2.7      2.7     98      1.5      1.5   100      4.2     4.2      99     17.8    0.79      0      0      0      0      0    23.5    23.5      0     0.39      1.5      1.5      1.5   100    17.7     0.645    -9.9    0.000    0.000      83        0.00    0.000    0.000     257.4    213.4    0.79   166.3     322.3     172.9     154.7     122.5     104.4      78.6    0.000     0.000     0.000     0.000     0.000    0.79     0.00    0.00      0   -9.90   -9.00       19.9       19.1       20.4       22.0       22.0       22.0       22.0       22.0       22.0       22.0       22.0       22.0        0.0        0.0        0.0        0.0        0.0        0.0        0.0        0.0        0.0        0.0        0.0        0.0      1.9       3.8      21.6      25.7      29.8    362.74
    26     2  1996    36     3     253.7     0.0      0.0    0.0    0.0    0.0      0.0      0.0   -9.90      3.0      1.8     59      1.9      1.9   100      4.9     3.6      75     17.1    0.80      0      0      0      0      0    26.5    26.5      0     0.43      1.9      1.9      1.9   100    17.7     0.721    -9.9    0.000    0.000      83        0.00    0.000    0.000     253.7    209.7    0.80   165.2     327.0     175.5     159.0     125.9     107.2      79.8    0.000     0.000     0.000     0.000     0.000    0.80     0.00    0.00      0   -9.90   -9.00       16.2       19.1       20.4       22.0       22.0       22.0       22.0       22.0       22.0       22.0       22.0       22.0        0.0        0.0        0.0        0.0        0.0        0.0        0.0        0.0        0.0        0.0        0.0        0.0      0.0       4.4      20.2      25.1      30.1    362.74
    27     2  1996    37     3     250.6     0.0      0.0    0.0    0.0    0.0      0.0      0.0   -9.90      2.8      0.9     34      2.1      2.1   100      4.9     3.1      63     17.1    0.81      0      0      0      0      0    30.0    30.0      0     0.48      2.1      2.1      2.1   100    17.7     0.806    -9.9    0.000    0.000      83        0.00    0.000    0.000     250.6    206.6    0.81   164.6     331.7     178.0     161.5     127.9     108.8      80.9    0.000     0.000     0.000     0.000     0.000    0.81     0.00    0.00      0   -9.90   -9.00       13.2       19.1       20.4       22.0       22.0       22.0       22.0       22.0       22.0       22.0       22.0       22.0        0.0        0.0        0.0        0.0        0.0        0.0        0.0        0.0        0.0        0.0        0.0        0.0      0.0       4.5      20.3      25.4      30.5    362.74
    28     2  1996    38     3     247.7     0.0      0.0    0.0    0.0    0.0      0.0      0.0   -9.90      2.6      0.5     20      2.4      2.4   100      5.1     3.0      59     17.0    0.82      0      0      0      0      0    33.9    33.9      0     0.53      2.4      2.4      2.4   100    17.7     0.899     1.5    0.014    0.271      83        0.02    0.000    0.000     247.7    203.7    0.82   164.2     336.4     180.5     164.3     130.2     110.7      82.0    0.000     0.000     0.000     0.000     0.000    0.82     0.00    0.00      0   -9.90   -9.00       10.2       19.1       20.4       22.0       22.0       22.0       22.0       22.0       22.0       22.0       22.0       22.0        0.0        0.0        0.0        0.0        0.0        0.0        0.0        0.0        0.0        0.0        0.0        0.0      0.0       4.6      20.0      25.4      30.9    362.74
    29     2  1996    39     3     244.7     0.0      0.0    0.0    0.0    0.0      0.0      0.0   -9.90      2.4      0.3     12      2.7      2.7   100      5.1     3.0      59     16.9    0.83      0      0      0      0      0    38.3    38.3      0     0.58      2.7      2.7      2.7   100    17.7     1.002     1.7    0.017    0.345      83        0.03    0.000    0.000     244.7    200.7    0.83   163.6     341.0     183.0     166.8     132.1     112.4      83.2    0.000     0.000     0.000     0.000     0.000    0.83     0.00    0.00      0   -9.90   -9.00        9.9       16.4       20.4       22.0       22.0       22.0       22.0       22.0       22.0       22.0       22.0       22.0        0.0        0.0        0.0        0.0        0.0        0.0        0.0        0.0        0.0        0.0        0.0        0.0      0.0       4.7      19.8      25.5      31.2    362.74
     1     3  1996    40     3     241.7     0.0      0.0    0.0    0.0    0.0      0.0      0.0   -9.90      2.0      0.2      9      2.8      2.8   100      4.8     2.9      61     16.9    0.84      1      0      0      0      0    42.5    42.5      0     0.63      2.8      2.8      2.8   100    17.7     1.114     2.0    0.022    0.439      84        0.03    0.000    0.000     241.7    197.7    0.84   163.2     345.6     185.4     167.8     132.9     113.2      84.3    0.000     0.000     0.000     0.000     0.000    0.84     0.00    0.00      0   -9.90   -9.00        9.7       13.6       20.4       22.0       22.0       22.0       22.0       22.0       22.0       22.0       22.0       22.0        0.0        0.0        0.0        0.0        0.0        0.0        0.0        0.0        0.0        0.0        0.0        0.0      0.0       4.4      19.9      25.2      30.6    362.74
     2     3  1996    41     3     238.4     0.0      0.0    0.0    0.0    0.0      0.0      0.0   -9.90      2.1      0.1      7      3.2      3.2   100      5.3     3.4      64     16.5    0.85      3      0      0      0      0    46.2    46.2      0     0.67      3.2      3.2      3.2   100    17.7     1.233     2.3    0.028    0.556      84        0.04    0.000    0.000     238.4    194.4    0.85   162.2     350.1     187.9     171.8     136.1     115.7      85.4    0.000     0.000     0.000     0.000     0.000    0.85     0.00    0.00      0   -9.90   -9.00        9.6       10.4       20.4       22.0       22.0       22.0       22.0       22.0       22.0       22.0       22.0       22.0        0.0        0.0        0.0        0.0        0.0        0.0        0.0        0.0        0.0        0.0        0.0        0.0      0.0       4.8      19.0      24.9      30.8    362.74
     3     3  1996    42     3     235.1     0.0      0.0    0.0    0.0    0.0      0.0      0.0   -9.90      1.8      0.1      4      3.1      3.1   100      4.9     3.2      66     15.9    0.86      4      0      0      0      0    49.4    49.4      0     0.71      3.1      3.1      3.1   100    17.7     1.357     2.6    0.035    0.700      85        0.05    0.000    0.000     235.1    191.1    0.86   161.4     354.6     190.3     172.6     136.7     116.3      86.5    0.000     0.000     0.000     0.000     0.000    0.86     0.00    0.00      0   -9.90   -9.00        9.5        9.5       18.1       22.0       22.0       22.0       22.0       22.0       22.0       22.0       22.0       22.0        0.0        0.0        0.0        0.0        0.0        0.0        0.0        0.0        0.0        0.0        0.0        0.0      0.0       4.5      17.7      23.9      30.1    362.74
     4     3  1996    43     3     231.5     0.0      0.0    0.0    0.0    0.0      0.0      0.0   -9.90      1.8      0.1      4      3.6      3.6   100      5.4     3.6      68     15.5    0.88      8      0      0      0      0    52.1    52.1      0     0.73      3.6      3.6      3.6   100    17.7     1.487     2.9    0.044    0.876      86        0.06    0.000    0.000     231.5    187.5    0.88   160.2     359.0     192.7     176.4     139.7     118.8      87.6    0.000     0.000     0.000     0.000     0.000    0.88     0.00    0.00      0   -9.90   -9.00        9.5        9.5       14.6       22.0       22.0       22.0       22.0       22.0       22.0       22.0       22.0       22.0        0.0        0.0        0.0        0.0        0.0        0.0        0.0        0.0        0.0        0.0        0.0        0.0      0.0       4.9      17.0      23.9      30.8    362.74
     5     3  1996    44     3     227.7     0.0      0.0    0.0    0.0    0.0      0.0      0.0   -9.90      1.7      0.1      3      3.7      3.7   100      5.4     3.8      70     15.4    0.89     11      0      0      0      0    54.5    54.5      0     0.76      3.7      3.7      3.7   100    17.7     1.621     3.4    0.054    1.090      86        0.07    0.000    0.000     227.7    183.7    0.89   158.8     363.5     195.0     178.7     141.6     120.3      88.7    0.000     0.000     0.000     0.000     0.000    0.89     0.00    0.00      0   -9.90   -9.00        9.4        9.5       10.8       22.0       22.0       22.0       22.0       22.0       22.0       22.0       22.0       22.0        0.0        0.0        0.0        0.0        0.0        0.0        0.0        0.0        0.0        0.0        0.0        0.0      0.0       4.9      16.7      24.1      31.5    362.74
     6     3  1996    45     3     224.1     0.0      0.0    0.0    0.0    0.0      0.0      0.0   -9.90      1.5      0.1      3      3.6      3.6   100      5.1     3.7      72     15.6    0.90     14      0      0      0      0    56.5    56.5      0     0.78      3.6      3.6      3.6   100    17.7     1.759     3.8    0.067    1.348      87        0.08    0.000    0.000     224.1    180.1    0.90   157.5     367.9     197.4     179.8     142.4     121.1      89.7    0.000     0.000     0.000     0.000     0.000    0.90     0.00    0.00      0   -9.90   -9.00        9.3        9.5        9.4       19.9       22.0       22.0       22.0       22.0       22.0       22.0       22.0       22.0        0.0        0.0        0.0        0.0        0.0        0.0        0.0        0.0        0.0        0.0        0.0        0.0      0.0       4.6      17.3      24.1      30.9    362.74
     7     3  1996    46     3     219.9     0.0      0.0    0.0    0.0    0.0      0.0      0.0   -9.90      1.6      0.1      3      4.1      4.1   100      5.7     4.2      73     15.8    0.91     23      0      0      0      0    58.2    58.2      0     0.79      4.1      4.1      4.1   100    17.7     1.899     4.4    0.083    1.657      88        0.09    0.000    0.000     219.9    175.9    0.91   155.6     372.2     199.7     184.1     145.8     123.9      90.8    0.000     0.000     0.000     0.000     0.000    0.91     0.00    0.00      0   -9.90   -9.00        9.3        9.5        9.4       16.3       21.4       22.0       22.0       22.0       22.0       22.0       22.0       22.0        0.0        0.0        0.0        0.0        0.0        0.0        0.0        0.0        0.0        0.0        0.0        0.0      0.0       5.2      17.5      24.3      31.1    362.74
     8     3  1996    47     3     264.2     0.0     49.8    0.0   49.8    0.0      0.0      0.0   -9.90      1.4      1.4    100      4.0      4.0   100      5.5     5.5     100     15.6    0.92      0      0      0      0      0    60.1    60.1      0     0.81      4.0      4.0      4.0   100    17.7     2.043     5.0    0.101    2.027      88        0.11    0.000    0.000     264.2    220.2    0.92   202.2     376.5     202.0     185.5     146.9     124.9      91.8    0.000     0.000     0.000     0.000     0.000    0.92     0.00    0.00      0   -9.90   -9.00       35.5       27.6        9.4       16.3       21.4       22.0       22.0       22.0       22.0       22.0       22.0       22.0        0.0        0.0        0.0        0.0        0.0        0.0        0.0        0.0        0.0        0.0        0.0        0.0      0.0       5.0      17.3      24.2      31.2    362.74
     9     3  1996    48     3     259.1     0.1      0.0    0.0    0.1    0.0      0.0      0.0   -9.90      1.3      1.2     93      4.0      4.0   100      5.3     5.2      98     16.4    0.93      0      0      0      0      0    61.8    61.8      0     0.83      4.0      4.0      4.0   100    17.7     2.189     5.6    0.123    2.468      89        0.12    0.000    0.000     259.1    215.1    0.93   199.5     380.8     204.3     186.7     147.9     125.8      92.9    0.000     0.000     0.000     0.000     0.000    0.93     0.00    0.00      0   -9.90   -9.00       17.2       22.4       22.4       21.7       21.4       22.0       22.0       22.0       22.0       22.0       22.0       22.0        0.0        0.0        0.0        0.0        0.0        0.0        0.0        0.0        0.0        0.0        0.0        0.0      0.1       4.8      18.7      24.9      31.2    362.74
    10     3  1996    49     3     254.5     0.0      0.0    0.0    0.0    0.0      0.0      0.0   -9.90      1.3      0.5     42      4.1      4.1   100      5.4     4.6      86     15.9    0.94      0      0      0      0      0    63.3    63.3      0     0.84      4.1      4.1      4.1   100    17.7     2.338     6.4    0.149    2.988      89        0.14    0.000    0.000     254.5    210.5    0.94   197.1     385.1     206.6     189.2     149.8     127.4      93.9    0.000     0.000     0.000     0.000     0.000    0.94     0.00    0.00      0   -9.90   -9.00       12.6       22.0       22.0       22.0       21.8       22.0       22.0       22.0       22.0       22.0       22.0       22.0        0.0        0.0        0.0        0.0        0.0        0.0        0.0        0.0        0.0        0.0        0.0        0.0      0.0       4.9      17.9      24.9      31.9    362.74
    11     3  1996    50     3     249.8     0.1      0.0    0.0    0.1    0.0      0.0      0.0   -9.90      1.2      0.7     59      4.2      4.2   100      5.4     4.9      91     16.9    0.95      0      0      0      0      0    64.7    64.7      0     0.85      4.2      4.2      4.2   100    17.7     2.488     7.2    0.180    3.601      89        0.17    0.000    0.000     249.8    205.8    0.95   194.6     389.3     208.9     191.2     151.5     128.8      94.9    0.000     0.000     0.000     0.000     0.000    0.95     0.00    0.00      0   -9.90   -9.00        8.6       21.3       22.0       22.0       21.9       22.0       22.0       22.0       22.0       22.0       22.0       22.0        0.0        0.0        0.0        0.0        0.0        0.0        0.0        0.0        0.0        0.0        0.0        0.0      0.1       4.9      19.8      26.1      32.4    362.74
    12     3  1996    51     3     245.0     0.0      0.0    0.0    0.0    0.0      0.0      0.0   -9.90      1.2      0.3     21      4.5      4.5   100      5.7     4.8      83     17.0    0.96      0      0      0      0      0    65.9    65.9      0     0.86      4.5      4.5      4.5   100    17.7     2.641     8.2    0.216    4.318      90        0.19    0.000    0.000     245.0    201.0    0.96   192.1     393.5     211.1     194.8     154.3     131.1      96.0    0.000     0.000     0.000     0.000     0.000    0.96     0.00    0.00      0   -9.90   -9.00        8.3       16.8       22.0       22.0       21.9       22.0       22.0       22.0       22.0       22.0       22.0       22.0        0.0        0.0        0.0        0.0        0.0        0.0        0.0        0.0        0.0        0.0        0.0        0.0      0.0       5.2      20.0      26.0      32.0    362.74
    13     3  1996    52     3     240.0     0.0      0.0    0.0    0.0    0.0      0.0      0.0   -9.90      1.3      0.1     12      4.9      4.9   100      6.2     5.0      82     16.4    0.97      2      0      0      0      0    66.9    66.9      0     0.87      4.9      4.9      4.9   100    17.7     2.795     9.2    0.258    5.152      90        0.22    0.000    0.000     240.0    196.0    0.97   189.3     397.7     213.4     198.5     157.3     133.5      97.0    0.000     0.000     0.000     0.000     0.000    0.97     0.00    0.00      0   -9.90   -9.00        8.2       12.1       21.8       22.0       21.9       22.0       22.0       22.0       22.0       22.0       22.0       22.0        0.0        0.0        0.0        0.0        0.0        0.0        0.0        0.0        0.0        0.0        0.0        0.0      0.0       5.6      18.9      25.6      32.3    362.74
    14     3  1996    53     3     234.9     0.0      0.0    0.0    0.0    0.0      0.0      0.0   -9.90      1.2      0.1      6      5.0      5.0   100      6.2     5.0      81     16.1    0.98      4      0      0      0      0    67.8    67.8      0     0.88      5.0      5.0      5.0   100    17.7     2.951    10.4    0.306    6.117      91        0.25    0.000    0.000     234.9    190.9    0.98   186.5     401.8     215.6     200.8     159.1     135.0      98.0    0.000     0.000     0.000     0.000     0.000    0.98     0.00    0.00      0   -9.90   -9.00        8.1        9.0       19.9       22.0       21.9       22.0       22.0       22.0       22.0       22.0       22.0       22.0        0.0        0.0        0.0        0.0        0.0        0.0        0.0        0.0        0.0        0.0        0.0        0.0      0.0       5.7      18.3      25.3      32.3    362.74
    15     3  1996    54     3     230.4     0.0      0.0    0.0    0.0    0.0      0.0      0.0   -9.90      1.1      0.0      4      4.5      4.5   100      5.6     4.5      81     16.2    0.99      6      0      0      0      0    68.6    68.6      0     0.89      4.5      4.5      4.5   100    17.7     3.108    11.6    0.361    7.225      91        0.28    0.000    0.000     230.4    186.4    0.99   184.2     405.9     217.8     200.3     158.7     134.9      99.0    0.000     0.000     0.000     0.000     0.000    0.99     0.00    0.00      0   -9.90   -9.00        8.0        9.0       15.7       21.7       21.9       22.0       22.0       22.0       22.0       22.0       22.0       22.0        0.0        0.0        0.0        0.0        0.0        0.0        0.0        0.0        0.0        0.0        0.0        0.0      0.0       5.1      18.5      25.1      31.7    362.74
    16     3  1996    55     3     225.9     0.4      0.0    0.0    0.4    0.0      0.0      0.0   -9.90      1.0      0.4     40      4.5      4.5   100      5.5     4.9      89     17.0    1.00      8      0      0      0      0    69.2    69.2      0     0.89      4.5      4.5      4.5   100    17.7     3.266    12.9    0.423    8.452      91        0.32    0.000    0.000     225.9    181.9    1.00   181.9     410.0     220.0     202.2     160.1     136.1     100.0    0.000     0.000     0.000     0.000     0.000    1.00     0.00    0.00      0   -9.90   -9.00        8.0        9.0       11.6       21.4       21.9       22.0       22.0       22.0       22.0       22.0       22.0       22.0        0.0        0.0        0.0        0.0        0.0        0.0        0.0        0.0        0.0        0.0        0.0        0.0      0.4       5.0      20.0      26.3      32.6    362.74
    17     3  1996    56     3     220.8     0.0      0.0    0.0    0.0    0.0      0.0      0.0   -9.90      1.1      0.0      3      5.0      5.0   100      6.2     5.1      82     16.9    1.00     16      0      0      0      0    69.8    69.8      0     0.90      5.0      5.0      5.0   100    17.7     3.424    14.3    0.488    9.765      92        0.35    0.000    0.000     220.8    176.8    1.00   176.8     410.0     220.0     204.8     162.2     137.7     100.0    0.000     0.000     0.000     0.000     0.000    1.00     0.00    0.00      0   -9.90   -9.00        8.0        9.0        9.2       18.7       21.9       22.0       22.0       22.0       22.0       22.0       22.0       22.0        0.0        0.0        0.0        0.0        0.0        0.0        0.0        0.0        0.0        0.0        0.0        0.0      0.0       5.6      19.8      26.6      33.5    362.74
    18     3  1996    57     3     215.7     0.0      0.0    0.0    0.0    0.0      0.0      0.0   -9.90      1.1      0.0      3      5.0      5.0   100      6.1     5.0      82     16.1    1.00     24      0      0      0      0    70.2    70.2      0     0.90      5.0      5.0      5.0   100    17.7     3.584    15.6    0.558   11.164      92        0.39    0.000    0.000     215.7    171.7    1.00   171.7     410.0     220.0     204.5     162.0     137.5     100.0    0.000     0.000     0.000     0.000     0.000    1.00     0.00    0.00      0   -9.90   -9.00        7.9        9.0        9.2       14.9       20.7       22.0       22.0       22.0       22.0       22.0       22.0       22.0        0.0        0.0        0.0        0.0        0.0        0.0        0.0        0.0        0.0        0.0        0.0        0.0      0.0       5.5      18.2      25.0      31.9    362.74
    19     3  1996    58     3     263.9     0.0     54.4    0.0   54.4    0.0      0.0      0.0   -9.90      1.1      1.1    100      5.1      5.1   100      6.2     6.2     100     16.9    1.00      0      0      0      0      0    70.8    70.8      0     0.91      5.1      5.1      5.1   100    17.7     3.744    16.9    0.632   12.649      92        0.42    0.000    0.000     263.9    219.9    1.00   219.9     410.0     220.0     205.1     162.4     137.9     100.0    0.000     0.000     0.000     0.000     0.000    1.00     0.00    0.00      0   -9.90   -9.00       34.8       30.3        9.2       14.9       20.7       22.0       22.0       22.0       22.0       22.0       22.0       22.0        0.0        0.0        0.0        0.0        0.0        0.0        0.0        0.0        0.0        0.0        0.0        0.0      0.0       5.7      19.7      26.4      33.1    362.74
    20     3  1996    59     3     267.7     8.8      0.0    0.0    8.7    0.1      0.0      0.0   -9.90      0.8      0.8    100      4.0      4.0   100      4.8     4.8     100     18.1    1.00      0      0      0      0      0    71.3    71.3      0     0.91      4.0      4.0      4.0   100    17.7     3.905    18.2    0.711   14.221      92        0.46    0.000    0.000     267.7    223.7    1.00   223.7     410.0     220.0     199.2     157.8     134.3     100.0    0.000     0.000     0.000     0.000     0.000    1.00     0.00    0.00      0   -9.90   -9.00       26.3       22.4       22.4       22.0       20.7       22.0       22.0       22.0       22.0       22.0       22.0       22.0        0.0        0.0        0.0        0.0        0.0        0.0        0.0        0.0        0.0        0.0        0.0        0.0      8.8       4.4      22.3      26.8      31.2    362.74
    21     3  1996    60     3     259.5     0.2      0.0    0.0    0.2    0.0      2.5      0.0   -9.90      1.0      1.0     97      5.0      5.0   100      6.0     6.0      99     18.6    1.00      0      0      0      0      0    71.7    71.7      0     0.91      5.0      5.0      5.0   100    17.7     4.066    19.5    0.794   15.880      93        0.50    0.000    0.000     259.5    215.4    1.00   215.4     410.0     220.0     204.2     161.7     137.3     100.0    0.000     0.000     0.000     0.000     0.000    1.00     0.00    0.00      0   -9.90   -9.00       16.3       22.3       22.2       22.2       22.1       22.1       22.0       22.0       22.0       22.0       22.0       22.0        0.0        0.0        0.0        0.0        0.0        0.0        0.0        0.0        0.0        0.0        0.0        0.0      0.2       5.5      23.1      27.9      32.8    362.74
    22     3  1996    61     3     252.8     0.0      0.0    0.0    0.0    0.0      1.0      0.0   -9.90      1.1      0.4     38      5.3      5.3   100      6.4     5.7      90     17.5    1.00      0      0      0      0      0    72.1    72.1      0     0.92      5.3      5.3      5.3   100    17.7     4.228    20.8    0.881   17.627      93        0.53    0.000    0.000     252.8    208.7    1.00   208.7     410.0     220.0     205.6     162.8     138.2     100.0    0.000     0.000     0.000     0.000     0.000    1.00     0.00    0.00      0   -9.90   -9.00       10.8       21.8       22.0       22.0       22.0       22.0       22.0       22.0       22.0       22.0       22.0       22.0        0.0        0.0        0.0        0.0        0.0        0.0        0.0        0.0        0.0        0.0        0.0        0.0      0.0       5.8      21.0      26.9      32.8    362.74
    23     3  1996    62     3     247.1     0.0      0.0    0.0    0.0    0.0      0.1      0.0   -9.90      1.1      0.2     15      5.4      5.4   100      6.5     5.6      86     16.9    1.00      0      0      0      0      0    72.4    72.4      0     0.92      5.4      5.4      5.4   100    17.7     4.391    22.2    0.973   19.461      93        0.57    0.000    0.000     247.1    203.1    1.00   203.1     410.0     220.0     206.0     163.1     138.4     100.0    0.000     0.000     0.000     0.000     0.000    1.00     0.00    0.00      0   -9.90   -9.00        9.2       17.9       22.0       22.0       22.0       22.0       22.0       22.0       22.0       22.0       22.0       22.0        0.0        0.0        0.0        0.0        0.0        0.0        0.0        0.0        0.0        0.0        0.0        0.0      0.0       5.9      19.7      26.4      33.1    362.74
    24     3  1996    63     3     241.7     0.0      0.0    0.0    0.0    0.0      0.0      0.0   -9.90      1.0      0.1      8      5.3      5.3   100      6.3     5.4      85     17.8    1.00      1      0      0      0      0    72.7    72.7      0     0.92      5.3      5.3      5.3   100    17.7     4.553    23.5    1.069   21.383      93        0.61    0.000    0.000     241.7    197.7    1.00   197.7     410.0     220.0     205.3     162.6     138.0     100.0    0.000     0.000     0.000     0.000     0.000    1.00     0.00    0.00      0   -9.90   -9.00        9.1       13.2       21.4       22.0       22.0       22.0       22.0       22.0       22.0       22.0       22.0       22.0        0.0        0.0        0.0        0.0        0.0        0.0        0.0        0.0        0.0        0.0        0.0        0.0      0.0       5.7      21.6      27.7      33.8    362.74
    25     3  1996    64     3     236.7     0.0      0.0    0.0    0.0    0.0      0.0      0.0   -9.90      0.9      0.0      5      4.9      4.9   100      5.9     5.0      85     18.1    1.00      2      0      0      0      0    72.9    72.9      0     0.92      4.9      4.9      4.9   100    17.7     4.717    24.8    1.170   23.392      94        0.64    0.000    0.000     236.7    192.7    1.00   192.7     410.0     220.0     203.5     161.2     136.9     100.0    0.000     0.000     0.000     0.000     0.000    1.00     0.00    0.00      0   -9.90   -9.00        9.1        9.3       20.4       22.0       22.0       22.0       22.0       22.0       22.0       22.0       22.0       22.0        0.0        0.0        0.0        0.0        0.0        0.0        0.0        0.0        0.0        0.0        0.0        0.0      0.0       5.3      22.3      28.0      33.8    362.74
    26     3  1996    65     3     231.3     0.0      0.0    0.0    0.0    0.0      0.0      0.0   -9.90      1.0      0.0      3      5.3      5.3   100      6.4     5.4      85     18.1    1.00      6      0      0      0      0    73.1    73.1      0     0.92      5.3      5.3      5.3   100    17.7     4.880    26.1    1.274   25.489      94        0.68    0.000    0.000     231.3    187.3    1.00   187.3     410.0     220.0     205.5     162.8     138.1     100.0    0.000     0.000     0.000     0.000     0.000    1.00     0.00    0.00      0   -9.90   -9.00        9.1        9.3       16.2       20.9       22.0       22.0       22.0       22.0       22.0       22.0       22.0       22.0        0.0        0.0        0.0        0.0        0.0        0.0        0.0        0.0        0.0        0.0        0.0        0.0      0.0       5.8      22.3      28.1      34.0    362.74
    27     3  1996    66     3     226.3     0.0      0.0    0.0    0.0    0.0      0.0      0.0   -9.90      0.9      0.0      3      5.0      5.0   100      6.0     5.0      85     17.6    1.00      9      0      0      0      0    73.3    73.3      0     0.93      5.0      5.0      5.0   100    17.7     5.044    27.4    1.384   27.674      94        0.72    0.000    0.000     226.3    182.3    1.00   182.3     410.0     220.0     203.9     161.5     137.1     100.0    0.000     0.000     0.000     0.000     0.000    1.00     0.00    0.00      0   -9.90   -9.00        9.0        9.3       12.0       20.0       22.0       22.0       22.0       22.0       22.0       22.0       22.0       22.0        0.0        0.0        0.0        0.0        0.0        0.0        0.0        0.0        0.0        0.0        0.0        0.0      0.0       5.4      21.2      27.4      33.6    362.74
    28     3  1996    67     3     222.7     1.9      0.0    0.0    1.9    0.0      0.0      0.0   -9.90      0.9      0.9    100      4.6      4.6   100      5.5     5.5     100     18.1    1.00     11      0      0      0      0    73.5    73.5      0     0.93      4.6      4.6      4.6   100    17.7     5.208    28.7    1.497   29.946      94        0.76    0.000    0.000     222.7    178.7    1.00   178.7     410.0     220.0     201.9     159.9     135.9     100.0    0.000     0.000     0.000     0.000     0.000    1.00     0.00    0.00      0   -9.90   -9.00        9.9        9.3        9.2       18.4       22.0       22.0       22.0       22.0       22.0       22.0       22.0       22.0        0.0        0.0        0.0        0.0        0.0        0.0        0.0        0.0        0.0        0.0        0.0        0.0      1.9       5.0      22.2      26.8      31.3    362.74
    29     3  1996    68     3     217.5     0.3      0.0    0.0    0.3    0.0      0.0      0.0   -9.90      0.9      0.3     36      5.2      5.2   100      6.1     5.5      90     18.1    1.00     20      0      0      0      0    74.2    74.2      0     0.93      5.2      5.2      5.2   100    17.7     5.373    30.1    1.616   32.311      94        0.80    0.000    0.000     217.5    173.5    1.00   173.5     410.0     220.0     204.5     162.0     137.5     100.0    0.000     0.000     0.000     0.000     0.000    1.00     0.00    0.00      0   -9.90   -9.00        9.8        9.3        9.2       14.6       20.5       22.0       22.0       22.0       22.0       22.0       22.0       22.0        0.0        0.0        0.0        0.0        0.0        0.0        0.0        0.0        0.0        0.0        0.0        0.0      0.3       5.6      22.2      27.8      33.3    362.74
    30     3  1996    69     3     264.8     0.0     52.6    0.0   52.6    0.0      0.0      0.0   -9.90      0.8      0.8    100      4.5      4.5   100      5.3     5.3     100     18.4    1.00     -9      0      0      0      0    74.3    74.3      0     0.93      4.5      4.5      4.5   100    17.7     5.538    31.4    1.738   34.763      94        0.83    0.000    0.000     264.8    220.8    1.00   220.8     410.0     220.0     201.2     159.4     135.5     100.0    0.000     0.000     0.000     0.000     0.000    1.00     0.00    0.00      0   -9.90   -9.00       35.7       30.7        9.2       14.6       20.5       22.0       22.0       22.0       22.0       22.0       22.0       22.0        0.0        0.0        0.0        0.0        0.0        0.0        0.0        0.0        0.0        0.0        0.0        0.0      0.0       4.8      22.7      27.7      32.7    362.74
    31     3  1996    70     3     259.5     0.2      0.0    0.0    0.2    0.0      0.0      0.0   -9.90      0.8      0.8     95      4.7      4.7   100      5.6     5.5      99     18.2    1.00     -9      0      0      0      0    74.4    74.4      0     0.93      4.7      4.7      4.7   100    17.7     5.704    32.7    1.865   37.302      95        0.87    0.000    0.000     259.5    215.5    1.00   215.5     410.0     220.0     202.4     160.3     136.2     100.0    0.000     0.000     0.000     0.000     0.000    1.00     0.00    0.00      0   -9.90   -9.00       16.8       22.4       22.4       22.2       21.6       22.0       22.0       22.0       22.0       22.0       22.0       22.0        0.0        0.0        0.0        0.0        0.0        0.0        0.0        0.0        0.0        0.0        0.0        0.0      0.2       5.1      22.5      27.2      31.9    362.74
     1     4  1996    71     3     253.4     0.0      0.0    0.0    0.0    0.0      0.5      0.0   -9.90      0.9      0.4     40      5.2      5.2   100      6.1     5.6      91     18.3    1.00     -9      0      0      0      0    74.4    74.4      0     0.93      5.2      5.2      5.2   100    17.7     5.869    34.0    1.996   39.928      95        0.91    0.000    0.000     253.4    209.4    1.00   209.4     410.0     220.0     204.5     162.0     137.5     100.0    0.000     0.000     0.000     0.000     0.000    1.00     0.00    0.00      0   -9.90   -9.00       11.3       22.0       22.0       22.0       22.0       22.0       22.0       22.0       22.0       22.0       22.0       22.0        0.0        0.0        0.0        0.0        0.0        0.0        0.0        0.0        0.0        0.0        0.0        0.0      0.0       5.6      22.6      28.2      33.7    362.74
     2     4  1996    72     3     247.5     0.0      0.0    0.0    0.0    0.0      0.1      0.0   -9.90      1.0      0.2     16      5.6      5.6   100      6.6     5.8      87     18.7    1.00     -9      0      0      0      0    74.5    74.5      0     0.93      5.6      5.6      5.6   100    17.7     6.034    35.3    2.132   42.641      95        0.95    0.000    0.000     247.5    203.5    1.00   203.5     410.0     220.0     206.7     163.7     138.9     100.0    0.000     0.000     0.000     0.000     0.000    1.00     0.00    0.00      0   -9.90   -9.00        8.9       18.6       22.0       22.0       22.0       22.0       22.0       22.0       22.0       22.0       22.0       22.0        0.0        0.0        0.0        0.0        0.0        0.0        0.0        0.0        0.0        0.0        0.0        0.0      0.0       6.0      23.4      28.9      34.4    362.74
     3     4  1996    73     3     242.0     0.0      0.0    0.0    0.0    0.0      0.0      0.0   -9.90      1.0      0.1      8      5.4      5.4   100      6.4     5.5      86     18.1    1.00     -9      0      0      0      0    74.6    74.6      0     0.93      5.4      5.4      5.4   100    17.7     6.199    36.7    2.272   45.439      95        0.99    0.000    0.000     242.0    198.0    1.00   198.0     410.0     220.0     205.7     162.9     138.3     100.0    0.000     0.000     0.000     0.000     0.000    1.00     0.00    0.00      0   -9.90   -9.00        8.8       13.9       21.2       22.0       22.0       22.0       22.0       22.0       22.0       22.0       22.0       22.0        0.0        0.0        0.0        0.0        0.0        0.0        0.0        0.0        0.0        0.0        0.0        0.0      0.0       5.8      22.2      28.5      34.9    362.74
     4     4  1996    74     3     237.2     0.5      0.0    0.0    0.5    0.0      0.0      0.0   -9.90      0.8      0.5     64      4.7      4.7   100      5.5     5.2      95     17.7    1.00     -9      0      0      0      0    74.6    74.6      0     0.93      4.7      4.7      4.7   100    17.7     6.363    38.0    2.416   48.324      95        1.02    0.000    0.000     237.2    193.2    1.00   193.2     410.0     220.0     202.3     160.2     136.2     100.0    0.000     0.000     0.000     0.000     0.000    1.00     0.00    0.00      0   -9.90   -9.00        8.8        9.7       20.8       22.0       22.0       22.0       22.0       22.0       22.0       22.0       22.0       22.0        0.0        0.0        0.0        0.0        0.0        0.0        0.0        0.0        0.0        0.0        0.0        0.0      0.5       5.1      21.4      27.2      33.1    362.74
     5     4  1996    75     3     232.3     0.1      0.0    0.0    0.1    0.0      0.0      0.0   -9.90      0.9      0.1     16      4.9      4.9   100      5.8     5.1      87     18.6    1.00     -9      0      0      0      0    74.7    74.7      0     0.93      4.9      4.9      4.9   100    17.7     6.528    39.3    2.565   51.295      95        1.06    0.000    0.000     232.3    188.3    1.00   188.3     410.0     220.0     203.3     161.0     136.8     100.0    0.000     0.000     0.000     0.000     0.000    1.00     0.00    0.00      0   -9.90   -9.00        8.7        9.7       16.6       21.3       22.0       22.0       22.0       22.0       22.0       22.0       22.0       22.0        0.0        0.0        0.0        0.0        0.0        0.0        0.0        0.0        0.0        0.0        0.0        0.0      0.1       5.3      23.3      28.8      34.2    362.74
     6     4  1996    76     3     227.7     1.1      0.0    0.0    1.1    0.0      0.0      0.0   -9.90      0.8      0.8    100      4.8      4.8   100      5.6     5.6     100     19.0    1.00     -9      0      0      0      0    74.7    74.7      0     0.93      4.8      4.8      4.8   100    17.7     6.693    40.6    2.718   54.351      95        1.10    0.000    0.000     227.7    183.7    1.00   183.7     410.0     220.0     202.7     160.6     136.4     100.0    0.000     0.000     0.000     0.000     0.000    1.00     0.00    0.00      0   -9.90   -9.00        9.0        9.7       12.4       20.7       22.0       22.0       22.0       22.0       22.0       22.0       22.0       22.0        0.0        0.0        0.0        0.0        0.0        0.0        0.0        0.0        0.0        0.0        0.0        0.0      1.1       5.2      24.0      28.9      33.9    362.74
     7     4  1996    77     4     227.0     3.8      0.0    0.0    3.8    0.0      0.0      0.0   -9.90      0.7      0.7    100      3.9      3.9   100      4.6     4.6     100     19.0    1.00     -9      0      0      0      0    74.7    74.7      0     0.93      3.9      3.9      3.9   100    17.7     6.857    41.9    2.875   57.493      95        1.14    0.000    0.000     227.0    183.0    1.00   183.0     410.0     220.0     198.4     157.1     133.8     100.0    0.000     0.000     0.000     0.000     0.000    1.00     0.00    0.00      0   -9.90   -9.00        8.5        9.7       12.1       20.7       22.0       22.0       22.0       22.0       22.0       22.0       22.0       22.0        0.0        0.0        0.0        0.0        0.0        0.0        0.0        0.0        0.0        0.0        0.0        0.0      3.8       4.2      24.0      28.5      33.0    362.74
     8     4  1996    78     4     239.3    17.4      0.0    0.0   17.4    0.0      0.0      0.0   -9.90      0.8      0.8    100      4.3      4.3   100      5.1     5.1     100     18.4    1.00     -9      0      0      0      0    74.8    74.8      0     0.93      4.3      4.3      4.3   100    17.7     7.021    43.2    3.036   60.721      96        1.19    0.000    0.000     239.3    195.3    1.00   195.3     410.0     220.0     200.4     158.8     135.0     100.0    0.000     0.000     0.000     0.000     0.000    1.00     0.00    0.00      0   -9.90   -9.00       20.8        9.7       12.1       20.7       22.0       22.0       22.0       22.0       22.0       22.0       22.0       22.0        0.0        0.0        0.0        0.0        0.0        0.0        0.0        0.0        0.0        0.0        0.0        0.0     17.4       4.7      22.8      28.5      34.3    362.74
     9     4  1996    79     4     237.0     3.1      0.0    0.0    3.1    0.0      0.0      0.0   -9.90      0.8      0.8    100      4.5      4.5   100      5.3     5.3     100     18.4    1.00     -9      0      0      0      0    74.8    74.8      0     0.93      4.5      4.5      4.5   100    17.7     7.186    44.6    3.202   64.035      96        1.22    0.000    0.000     237.0    193.0    1.00   193.0     410.0     220.0     201.6     159.6     135.7     100.0    0.000     0.000     0.000     0.000     0.000    1.00     0.00    0.00      0   -9.90   -9.00       18.6        9.7       12.1       20.7       22.0       22.0       22.0       22.0       22.0       22.0       22.0       22.0        0.0        0.0        0.0        0.0        0.0        0.0        0.0        0.0        0.0        0.0        0.0        0.0      3.1       4.9      22.7      27.9      33.1    362.74
    10     4  1996    80     4     234.6     2.8      0.0    0.0    2.8    0.0      0.0      0.0   -9.90      0.8      0.8    100      4.4      4.4   100      5.2     5.2     100     18.7    1.00     -9      0      0      0      0    74.8    74.8      0     0.93      4.4      4.4      4.4   100    17.7     7.350    45.9    3.372   67.433      96        1.26    0.000    0.000     234.6    190.6    1.00   190.6     410.0     220.0     201.0     159.2     135.4     100.0    0.000     0.000     0.000     0.000     0.000    1.00     0.00    0.00      0   -9.90   -9.00       16.1        9.7       12.1       20.7       22.0       22.0       22.0       22.0       22.0       22.0       22.0       22.0        0.0        0.0        0.0        0.0        0.0        0.0        0.0        0.0        0.0        0.0        0.0        0.0      2.8       4.8      23.4      28.5      33.6    362.74
    11     4  1996    81     4     236.5     7.5      0.0    0.0    7.5    0.0      0.0      0.0   -9.90      0.8      0.8    100      4.8      4.8   100      5.6     5.6     100     18.1    1.00     -9      0      0      0      0    74.8    74.8      0     0.93      4.8      4.8      4.8   100    17.7     7.514    47.2    3.546   70.917      96        1.30    0.000    0.000     236.5    192.5    1.00   192.5     410.0     220.0     202.6     160.5     136.4     100.0    0.000     0.000     0.000     0.000     0.000    1.00     0.00    0.00      0   -9.90   -9.00       18.1        9.7       12.1       20.7       22.0       22.0       22.0       22.0       22.0       22.0       22.0       22.0        0.0        0.0        0.0        0.0        0.0        0.0        0.0        0.0        0.0        0.0        0.0        0.0      7.5       5.1      22.1      28.1      34.0    362.74
    12     4  1996    82     4     233.6     2.7      0.0    0.0    2.7    0.0      0.0      0.0   -9.90      0.8      0.8    100      4.8      4.8   100      5.6     5.6     100     19.4    1.00     -9      0      0      0      0    74.9    74.9      0     0.93      4.8      4.8      4.8   100    17.7     7.677    48.5    3.724   74.486      96        1.34    0.000    0.000     233.6    189.6    1.00   189.6     410.0     220.0     202.7     160.5     136.4     100.0    0.000     0.000     0.000     0.000     0.000    1.00     0.00    0.00      0   -9.90   -9.00       15.2        9.7       12.1       20.7       22.0       22.0       22.0       22.0       22.0       22.0       22.0       22.0        0.0        0.0        0.0        0.0        0.0        0.0        0.0        0.0        0.0        0.0        0.0        0.0      2.7       5.2      24.8      29.4      34.0    362.74
    13     4  1996    83     4     228.6     0.3      0.0    0.0    0.3    0.0      0.0      0.0   -9.90      0.9      0.4     52      4.9      4.9   100      5.7     5.3      93     19.3    1.00     -9      0      0      0      0    74.9    74.9      0     0.93      4.9      4.9      4.9   100    17.7     7.841    49.8    3.907   78.139      96        1.38    0.000    0.000     228.6    184.6    1.00   184.6     410.0     220.0     203.3     161.0     136.8     100.0    0.000     0.000     0.000     0.000     0.000    1.00     0.00    0.00      0   -9.90   -9.00       10.1        9.7       12.1       20.7       22.0       22.0       22.0       22.0       22.0       22.0       22.0       22.0        0.0        0.0        0.0        0.0        0.0        0.0        0.0        0.0        0.0        0.0        0.0        0.0      0.3       5.3      24.6      29.7      34.7    362.74
    14     4  1996    84     4     223.7     0.1      0.0    0.0    0.1    0.0      0.0      0.0   -9.90      0.8      0.2     18      4.8      4.8   100      5.7     5.0      88     18.7    1.00     -9      0      0      0      0    74.9    74.9      0     0.92      4.8      4.8      4.8   100    17.7     8.005    51.1    4.094   81.878      96        1.42    0.000    0.000     223.7    179.7    1.00   179.7     410.0     220.0     203.1     160.9     136.7     100.0    0.000     0.000     0.000     0.000     0.000    1.00     0.00    0.00      0   -9.90   -9.00        9.9        9.7        9.3       18.9       22.0       22.0       22.0       22.0       22.0       22.0       22.0       22.0        0.0        0.0        0.0        0.0        0.0        0.0        0.0        0.0        0.0        0.0        0.0        0.0      0.1       5.2      23.4      28.7      34.0    362.74
    15     4  1996    85     4     219.3     1.1      0.0    0.0    1.1    0.0      0.0      0.0   -9.90      0.8      0.8    100      4.7      4.7   100      5.5     5.5     100     19.1    1.00     -9      0      0      0      0    74.9    74.9      0     0.92      4.7      4.7      4.7   100    17.7     8.168    52.5    4.285   85.701      96        1.46    0.000    0.000     219.3    175.3    1.00   175.3     410.0     220.0     202.3     160.2     136.2     100.0    0.000     0.000     0.000     0.000     0.000    1.00     0.00    0.00      0   -9.90   -9.00        9.7        9.7        9.3       15.2       21.5       22.0       22.0       22.0       22.0       22.0       22.0       22.0        0.0        0.0        0.0        0.0        0.0        0.0        0.0        0.0        0.0        0.0        0.0        0.0      1.1       5.1      24.1      29.2      34.2    362.74
    16     4  1996    86     4     213.7     0.0      0.0    0.0    0.0    0.0      0.0      0.0   -9.90      0.9      0.3     35      5.3      5.3   100      6.2     5.6      90     19.2    1.00     -9      0      0      0      0    74.9    74.9      0     0.92      5.3      5.3      5.3   100    17.7     8.331    53.8    4.480   89.608      96        1.50    0.000    0.000     213.7    169.7    1.00   169.7     410.0     220.0     205.2     162.6     138.0     100.0    0.000     0.000     0.000     0.000     0.000    1.00     0.00    0.00      0   -9.90   -9.00        9.4        9.7        9.3       11.6       19.8       22.0       22.0       22.0       22.0       22.0       22.0       22.0        0.0        0.0        0.0        0.0        0.0        0.0        0.0        0.0        0.0        0.0        0.0        0.0      0.0       5.7      24.5      30.3      36.1    362.74
    17     4  1996    87     4     264.8     1.3     55.2    0.0   56.5    0.0      0.0      0.0   -9.90      0.8      0.8    100      4.6      4.6   100      5.4     5.4     100     19.8    1.00     -9      0      0      0      0    74.9    74.9      0     0.92      4.6      4.6      4.6   100    17.7     8.494    55.1    4.680   93.599      96        1.54    0.000    0.000     264.8    220.8    1.00   220.8     410.0     220.0     202.0     160.0     136.0     100.0    0.000     0.000     0.000     0.000     0.000    1.00     0.00    0.00      0   -9.90   -9.00       35.6       34.6        9.3       11.6       19.8       22.0       22.0       22.0       22.0       22.0       22.0       22.0        0.0        0.0        0.0        0.0        0.0        0.0        0.0        0.0        0.0        0.0        0.0        0.0      1.3       5.0      25.6      30.3      35.0    362.74
[...]
    19     4  1996    89     4     252.7     0.0      0.0    0.0    0.0    0.0      0.3      0.0   -9.90      0.9      0.3     37      5.4      5.4   100      6.4     5.8      91     18.6    1.00     -9      0      0      0      0    74.9    74.9      0     0.92      5.4      5.4      5.4   100    17.7     8.820    57.7    5.092  101.835      96        1.61    0.000    0.000     252.7    208.7    1.00   208.7     410.0     220.0     206.0     163.1     138.4     100.0    0.000     0.000     0.000     0.000     0.000    1.00     0.00    0.00      0   -9.90   -9.00       10.9       21.7       22.0       22.0       22.0       22.0       22.0       22.0       22.0       22.0       22.0       22.0        0.0        0.0        0.0        0.0        0.0        0.0        0.0        0.0        0.0        0.0        0.0        0.0      0.0       5.9      23.1      29.5      35.9    362.74
    20     4  1996    90     4     246.8     0.0      0.0    0.0    0.0    0.0      0.1      0.0   -9.90      1.0      0.1     15      5.7      5.7   100      6.7     5.8      87     18.2    1.00     -9      0      0      0      0    74.9    74.9      0     0.92      5.7      5.7      5.7   100    17.7     8.982    59.0    5.304  106.078      96        1.64    0.000    0.000     246.8    202.8    1.00   202.8     410.0     220.0     207.3     164.2     139.2     100.0    0.000     0.000     0.000     0.000     0.000    1.00     0.00    0.00      0   -9.90   -9.00        9.2       17.6       22.0       22.0       22.0       22.0       22.0       22.0       22.0       22.0       22.0       22.0        0.0        0.0        0.0        0.0        0.0        0.0        0.0        0.0        0.0        0.0        0.0        0.0      0.0       6.2      22.5      29.8      37.1    362.74
    21     4  1996    91     4     241.4     0.9      0.0    0.0    0.9    0.0      0.0      0.0   -9.90      0.9      0.9     96      5.4      5.4   100      6.4     6.3      99     19.4    1.00     -9      0      0      0      0    75.0    75.0      0     0.92      5.4      5.4      5.4   100    17.7     9.145    60.4    5.520  110.405      97        1.68    0.000    0.000     241.4    197.4    1.00   197.4     410.0     220.0     206.0     163.2     138.4     100.0    0.000     0.000     0.000     0.000     0.000    1.00     0.00    0.00      0   -9.90   -9.00        9.2       12.9       21.3       22.0       22.0       22.0       22.0       22.0       22.0       22.0       22.0       22.0        0.0        0.0        0.0        0.0        0.0        0.0        0.0        0.0        0.0        0.0        0.0        0.0      0.9       5.9      24.9      30.1      35.4    362.74
    22     4  1996    92     4     236.3     0.7      0.0    0.0    0.7    0.0      0.0      0.0   -9.90      0.9      0.7     79      5.0      5.0   100      6.0     5.8      97     19.1    1.00     -9      0     -9      0      0    74.6    74.6      0     0.91      5.0      5.0      5.0   100    17.7     9.306    61.7    5.740  114.803      97        1.72    0.000    0.000     236.3    192.3    1.00   192.3     410.0     220.0     204.4     161.9     137.5     100.0    0.000     0.000     0.000     0.000     0.000    1.00     0.00    0.00      0   -9.90   -9.00        9.1        9.2       20.0       22.0       22.0       22.0       22.0       22.0       22.0       22.0       22.0       22.0        0.0        0.0        0.0        0.0        0.0        0.0        0.0        0.0        0.0        0.0        0.0        0.0      0.7       5.5      24.3      30.2      36.1    362.74
    23     4  1996    93     4     232.4     2.0      0.0    0.0    2.0    0.0      0.0      0.0   -9.90      0.9      0.9    100      4.9      4.9   100      5.9     5.9     100     19.9    1.00     -9      0     -9      0      0    74.3    74.3      0     0.90      4.9      4.9      4.9   100    17.7     9.466    63.0    5.963  119.268      97        1.75    0.000    0.000     232.4    188.4    1.00   188.4     410.0     220.0     204.2     161.7     137.3     100.0    0.000     0.000     0.000     0.000     0.000    1.00     0.00    0.00      0   -9.90   -9.00        9.6        9.2       15.8       21.8       22.0       22.0       22.0       22.0       22.0       22.0       22.0       22.0        0.0        0.0        0.0        0.0        0.0        0.0        0.0        0.0        0.0        0.0        0.0        0.0      2.0       5.5      25.8      30.5      35.3    362.74
    24     4  1996    94     4     227.9     0.7      0.0    0.0    0.7    0.0      0.0      0.0   -9.90      0.8      0.7     84      4.5      4.5   100      5.4     5.2      97     19.6    1.00     -9      0     -9      0      0    73.9    73.9      0     0.90      4.5      4.5      4.5   100    17.7     9.624    63.0    6.063  121.263      97        1.75    0.000    0.000     227.9    183.9    1.00   183.9     410.0     220.0     202.2     160.2     136.1     100.0    0.000     0.000     0.000     0.000     0.000    1.00     0.00    0.00      0   -9.90   -9.00        9.6        9.2       11.6       21.5       22.0       22.0       22.0       22.0       22.0       22.0       22.0       22.0        0.0        0.0        0.0        0.0        0.0        0.0        0.0        0.0        0.0        0.0        0.0        0.0      0.7       5.0      25.2      30.1      35.0    362.74
    25     4  1996    95     4     222.7     0.3      0.0    0.0    0.3    0.0      0.0      0.0   -9.90      1.0      0.3     34      5.2      5.2   100      6.2     5.6      89     19.2    1.00     -9      0     -9      0      0    73.6    73.6      0     0.89      5.2      5.2      5.2   100    17.7     9.781    63.0    6.162  123.239      97        1.75    0.000    0.000     222.7    178.7    1.00   178.7     410.0     220.0     206.0     163.2     138.5     100.0    0.000     0.000     0.000     0.000     0.000    1.00     0.00    0.00      0   -9.90   -9.00        9.6        9.2        9.2       18.6       22.0       22.0       22.0       22.0       22.0       22.0       22.0       22.0        0.0        0.0        0.0        0.0        0.0        0.0        0.0        0.0        0.0        0.0        0.0        0.0      0.3       5.9      24.4      30.7      37.0    362.74
    26     4  1996    96     4     217.3     0.0      0.0    0.0    0.0    0.0      0.0      0.0   -9.90      1.0      0.1      5      5.3      5.3   100      6.4     5.4      85     19.3    1.00     -9      0     -9      0      0    73.1    73.1      0     0.88      5.3      5.3      5.3   100    17.7     9.936    63.0    6.260  125.194      97        1.76    0.000    0.000     217.3    173.3    1.00   173.3     410.0     220.0     206.9     163.9     139.0     100.0    0.000     0.000     0.000     0.000     0.000    1.00     0.00    0.00      0   -9.90   -9.00        9.5        9.2        9.2       14.9       20.4       22.0       22.0       22.0       22.0       22.0       22.0       22.0        0.0        0.0        0.0        0.0        0.0        0.0        0.0        0.0        0.0        0.0        0.0        0.0      0.0       6.1      24.6      30.9      37.1    362.74
    27     4  1996    97     4     263.9     0.2     52.9    0.0   53.1    0.0      0.0      0.0   -9.90      1.1      1.1    100      5.4      5.4   100      6.5     6.5     100     19.1    1.00     -9      0     -9      0      0    72.7    72.7      0     0.87      5.4      5.4      5.4   100    17.7    10.089    63.0    6.356  127.126      97        1.75    0.000    0.000     263.9    219.9    1.00   219.9     410.0     220.0     207.4     164.3     139.3     100.0    0.000     0.000     0.000     0.000     0.000    1.00     0.00    0.00      0   -9.90   -9.00       34.8       30.6        9.2       14.9       20.4       22.0       22.0       22.0       22.0       22.0       22.0       22.0        0.0        0.0        0.0        0.0        0.0        0.0        0.0        0.0        0.0        0.0        0.0        0.0      0.2       6.2      24.1      30.2      36.4    362.74
    28     4  1996    98     4     259.5     1.9      0.0    0.0    1.9    0.0      0.0      0.0   -9.90      1.1      1.1    100      5.2      5.2   100      6.3     6.3     100     18.1    1.00     -9      0     -9      0      0    72.2    72.2      0     0.86      5.2      5.2      5.2   100    17.7    10.241    63.0    6.452  129.035      97        1.75    0.000    0.000     259.5    215.5    1.00   215.5     410.0     220.0     207.1     164.0     139.1     100.0    0.000     0.000     0.000     0.000     0.000    1.00     0.00    0.00      0   -9.90   -9.00       17.8       22.3       22.4       22.3       20.7       22.0       22.0       22.0       22.0       22.0       22.0       22.0        0.0        0.0        0.0        0.0        0.0        0.0        0.0        0.0        0.0        0.0        0.0        0.0      1.9       6.1      22.2      29.2      36.2    362.74
    29     4  1996    99     4     254.3     0.7      0.0    0.0    0.7    0.0      0.0      0.0   -9.90      1.0      1.0     99      4.8      4.8   100      5.9     5.9     100     19.1    1.00     -9      0     -9      0      0    71.6    71.6      0     0.85      4.8      4.8      4.8   100    17.7    10.390    63.0    6.546  130.919      97        1.74    0.000    0.000     254.3    210.3    1.00   210.3     410.0     220.0     205.3     162.6     138.0     100.0    0.000     0.000     0.000     0.000     0.000    1.00     0.00    0.00      0   -9.90   -9.00       12.7       22.0       22.0       22.0       21.6       22.0       22.0       22.0       22.0       22.0       22.0       22.0        0.0        0.0        0.0        0.0        0.0        0.0        0.0        0.0        0.0        0.0        0.0        0.0      0.7       5.7      24.2      29.9      35.5    362.74
    30     4  1996   100     4     248.8     0.0      0.0    0.0    0.0    0.0      0.0      0.0   -9.90      1.1      0.4     35      5.1      5.1   100      6.2     5.5      88     19.0    1.00     -9      0     -9      0      0    71.0    71.0      0     0.83      5.1      5.1      5.1   100    17.7    10.538    63.0    6.639  132.776      97        1.74    0.000    0.000     248.8    204.8    1.00   204.8     410.0     220.0     207.1     164.0     139.1     100.0    0.000     0.000     0.000     0.000     0.000    1.00     0.00    0.00      0   -9.90   -9.00        8.7       20.4       22.0       22.0       21.7       22.0       22.0       22.0       22.0       22.0       22.0       22.0        0.0        0.0        0.0        0.0        0.0        0.0        0.0        0.0        0.0        0.0        0.0        0.0      0.0       6.1      24.0      30.6      37.1    362.74
     1     5  1996   101     4     243.3     0.0      0.0    0.0    0.0    0.0      0.0      0.0   -9.90      1.2      0.2     14      5.4      5.4   100      6.6     5.5      84     19.1    1.00     -9      0     -9      0      0    70.4    70.4      0     0.82      5.4      5.4      5.4   100    17.7    10.683    63.0    6.730  134.603      97        1.74    0.000    0.000     243.3    199.3    1.00   199.3     410.0     220.0     209.0     165.5     140.3     100.0    0.000     0.000     0.000     0.000     0.000    1.00     0.00    0.00      0   -9.90   -9.00        8.5       15.8       21.3       22.0       21.7       22.0       22.0       22.0       22.0       22.0       22.0       22.0        0.0        0.0        0.0        0.0        0.0        0.0        0.0        0.0        0.0        0.0        0.0        0.0      0.0       6.6      24.1      30.9      37.6    362.74
     2     5  1996   102     4     238.0     0.0      0.0    0.0    0.0    0.0      0.0      0.0   -9.90      1.2      0.1      8      5.1      5.1   100      6.4     5.2      82     18.4    1.00     -9      0     -9      0      0    69.7    69.7      0     0.81      5.1      5.1      5.1   100    17.7    10.825    63.0    6.820  136.399      97        1.74    0.000    0.000     238.0    194.0    1.00   194.0     410.0     220.0     208.2     164.9     139.8     100.0    0.000     0.000     0.000     0.000     0.000    1.00     0.00    0.00      0   -9.90   -9.00        8.4       11.2       20.7       22.0       21.7       22.0       22.0       22.0       22.0       22.0       22.0       22.0        0.0        0.0        0.0        0.0        0.0        0.0        0.0        0.0        0.0        0.0        0.0        0.0      0.0       6.4      22.7      30.1      37.6    362.74
     3     5  1996   103     4     233.0     0.0      0.0    0.0    0.0    0.0      0.0      0.0   -9.90      1.2      0.1      5      5.0      5.0   100      6.2     5.0      81     17.8    1.00     -9      0     -9      0      0    69.0    69.0      0     0.79      5.0      5.0      5.0   100    17.7    10.965    63.0    6.908  138.162      97        1.74    0.000    0.000     233.0    189.0    1.00   189.0     410.0     220.0     207.7     164.5     139.4     100.0    0.000     0.000     0.000     0.000     0.000    1.00     0.00    0.00      0   -9.90   -9.00        8.4        9.1       17.9       22.0       21.7       22.0       22.0       22.0       22.0       22.0       22.0       22.0        0.0        0.0        0.0        0.0        0.0        0.0        0.0        0.0        0.0        0.0        0.0        0.0      0.0       6.3      21.6      30.0      38.4    362.74
     4     5  1996   104     4     227.8     0.0      0.0    0.0    0.0    0.0      0.0      0.0   -9.90      1.3      0.0      3      5.1      5.1   100      6.5     5.2      80     18.4    1.00     -9      0     -9      0      0    68.2    68.2      0     0.77      5.1      5.1      5.1   100    17.7    11.102    63.0    6.994  139.890      97        1.74    0.000    0.000     227.8    183.8    1.00   183.8     410.0     220.0     209.3     165.8     140.4     100.0    0.000     0.000     0.000     0.000     0.000    1.00     0.00    0.00      0   -9.90   -9.00        8.3        9.1       13.7       21.1       21.7       22.0       22.0       22.0       22.0       22.0       22.0       22.0        0.0        0.0        0.0        0.0        0.0        0.0        0.0        0.0        0.0        0.0        0.0        0.0      0.0       6.6      22.7      30.7      38.7    362.74
     5     5  1996   105     4     223.3     0.0      0.0    0.0    0.0    0.0      0.0      0.0   -9.90      1.2      0.0      3      4.5      4.5   100      5.7     4.5      80     19.1    1.00     -9      0     -9      0      0    67.3    67.3      0     0.76      4.5      4.5      4.5   100    17.7    11.236    63.0    7.079  141.579      97        1.74    0.000    0.000     223.3    179.3    1.00   179.3     410.0     220.0     206.0     163.2     138.5     100.0    0.000     0.000     0.000     0.000     0.000    1.00     0.00    0.00      0   -9.90   -9.00        8.3        9.1       10.0       20.2       21.7       22.0       22.0       22.0       22.0       22.0       22.0       22.0        0.0        0.0        0.0        0.0        0.0        0.0        0.0        0.0        0.0        0.0        0.0        0.0      0.0       5.9      24.2      31.4      38.5    362.74
     6     5  1996   106     4     218.5     0.0      0.0    0.0    0.0    0.0      0.0      0.0   -9.90      1.4      0.0      3      4.8      4.8   100      6.2     4.9      79     19.3    1.00     -9      0     -9      0      0    66.4    66.4      0     0.74      4.8      4.8      4.8   100    17.7    11.367    63.0    7.161  143.228      97        1.74    0.000    0.000     218.5    174.5    1.00   174.5     410.0     220.0     208.8     165.4     140.1     100.0    0.000     0.000     0.000     0.000     0.000    1.00     0.00    0.00      0   -9.90   -9.00        8.3        9.1       10.0       16.5       20.6       22.0       22.0       22.0       22.0       22.0       22.0       22.0        0.0        0.0        0.0        0.0        0.0        0.0        0.0        0.0        0.0        0.0        0.0        0.0      0.0       6.5      24.6      31.5      38.4    362.74
     7     5  1996   107     4     263.9     0.0     51.7    0.0   51.7    0.0      0.0      0.0   -9.90      1.4      1.4    100      4.9      4.9   100      6.3     6.3     100     19.6    1.00     -9      0     -9      0      0    65.4    65.4      0     0.72      4.9      4.9      4.9   100    17.7    11.495    63.0    7.242  144.833      97        1.73    0.000    0.000     263.9    219.9    1.00   219.9     410.0     220.0     210.0     166.3     140.8     100.0    0.000     0.000     0.000     0.000     0.000    1.00     0.00    0.00      0   -9.90   -9.00       34.7       28.1       10.0       16.5       20.6       22.0       22.0       22.0       22.0       22.0       22.0       22.0        0.0        0.0        0.0        0.0        0.0        0.0        0.0        0.0        0.0        0.0        0.0        0.0      0.0       6.8      25.1      31.7      38.3    362.74
     8     5  1996   108     4     258.0     0.0      0.0    0.0    0.0    0.0      0.0      0.0   -9.90      1.4      1.4    100      4.5      4.5   100      5.9     5.9     100     19.4    1.00     -9      0     -9      0      0    64.3    64.3      0     0.70      4.5      4.5      4.5   100    17.7    11.618    63.0    7.320  146.392      97        1.73    0.000    0.000     258.0    214.0    1.00   214.0     410.0     220.0     208.4     165.0     139.9     100.0    0.000     0.000     0.000     0.000     0.000    1.00     0.00    0.00      0   -9.90   -9.00       16.5       22.4       22.4       22.0       20.7       22.0       22.0       22.0       22.0       22.0       22.0       22.0        0.0        0.0        0.0        0.0        0.0        0.0        0.0        0.0        0.0        0.0        0.0        0.0      0.0       6.4      24.7      31.5      38.3    362.74
     9     5  1996   109     4     252.4     0.0      0.0    0.0    0.0    0.0      0.0      0.0   -9.90      1.4      1.4    100      4.2      4.2   100      5.6     5.6     100     19.1    1.00     -9      0     -9      0      0    63.1    63.1      0     0.68      4.2      4.2      4.2   100    17.7    11.738    63.0    7.395  147.901      97        1.72    0.000    0.000     252.4    208.4    1.00   208.4     410.0     220.0     207.5     164.3     139.3     100.0    0.000     0.000     0.000     0.000     0.000    1.00     0.00    0.00      0   -9.90   -9.00       10.9       22.0       22.0       22.0       21.4       22.0       22.0       22.0       22.0       22.0       22.0       22.0        0.0        0.0        0.0        0.0        0.0        0.0        0.0        0.0        0.0        0.0        0.0        0.0      0.0       6.2      24.2      31.5      38.9    362.74
    10     5  1996   110     4     246.5     0.0      0.0    0.0    0.0    0.0      0.0      0.0   -9.90      1.5      1.5    100      4.3      4.3   100      5.8     5.8     100     19.9    1.00     -9      0     -9      0      0    61.8    61.8      0     0.65      4.3      4.3      4.3   100    17.7    11.854    63.0    7.468  149.357      97        1.72    0.000    0.000     246.5    202.5    1.00   202.5     410.0     220.0     209.3     165.8     140.4     100.0    0.000     0.000     0.000     0.000     0.000    1.00     0.00    0.00      0   -9.90   -9.00        9.4       17.7       22.0       22.0       21.4       22.0       22.0       22.0       22.0       22.0       22.0       22.0        0.0        0.0        0.0        0.0        0.0        0.0        0.0        0.0        0.0        0.0        0.0        0.0      0.0       6.6      25.9      32.8      39.8    362.74
