AquaCrop 7.2 (August 2024) - Output created on (date) : 12-12-2024   at (time) : 09:51:27

   Day Month  Year   DAP Stage   WC(1.20)   Rain     Irri   Surf   Infilt   RO    Drain       CR    Zgwt       Ex       E     E/Ex     Trx       Tr  Tr/Trx    ETx      ET  ET/ETx      GD       Z     StExp  StSto  StSen StSalt StWeed   CC      CCw     StTr  Kc(Tr)     Trx       Tr      TrW  Tr/Trx   WP    Biomass     HI    Y(dry)  Y(fresh)  Brelative    WPet      Bin     Bout  WC(1.20) Wr(0.61)     Z       Wr    Wr(SAT)    Wr(FC)   Wr(exp)   Wr(sto)   Wr(sen)   Wr(PWP)    SaltIn    SaltOut   SaltUp   Salt(1.20)  SaltZ     Z       ECe    ECsw   StSalt  Zgwt    ECgw       WC01       WC 2       WC 3       WC 4       WC 5       WC 6       WC 7       WC 8       WC 9       WC10       WC11       WC12      ECe01      ECe 2      ECe 3      ECe 4      ECe 5      ECe 6      ECe 7      ECe 8      ECe 9      ECe10      ECe11      ECe12     Rain       ETo      Tmin      Tavg      Tmax      CO2
                                      mm      mm       mm     mm     mm     mm       mm       mm      m        mm       mm     %        mm       mm    %        mm      mm       %  degC-day     m       %      %      %      %      %      %       %       %       -        mm       mm       mm    %     g/m2    ton/ha      %    ton/ha   ton/ha       %       kg/m3   ton/ha   ton/ha      mm       mm       m       mm        mm        mm        mm        mm        mm         mm    ton/ha    ton/ha    ton/ha    ton/ha    ton/ha     m      dS/m    dS/m      %     m      dS/m       0.05       0.15       0.25       0.35       0.45       0.55       0.65       0.75       0.85       0.95       1.05       1.15       0.05       0.15       0.25       0.35       0.45       0.55       0.65       0.75       0.85       0.95       1.05       1.15       mm        mm     degC      degC      degC       ppm
    22     1  1996     1     1     267.2     0.0      8.0    0.0    8.0    0.0      0.0      0.0   -9.90      4.8      4.8    100      0.0      0.0   100      4.8     4.8     100     15.6    0.30     -9     -9     -9      0     -9     0.0     0.0      0    -9.00      0.0      0.0      0.0   100     0.0     0.000    -9.9    0.000    0.000      -9        0.00    0.000    0.000     267.2    137.3    0.30    69.2     123.0      66.0      60.6      47.8      40.8      30.0    0.077     0.000     0.000     0.077     0.077    0.30     0.10    0.16      0   -9.90   -9.00       25.2       22.0       22.0       22.0       22.0       22.0       22.0       22.0       22.0       22.0       22.0       22.0        0.3        0.0        0.0        0.0        0.0        0.0        0.0        0.0        0.0        0.0        0.0        0.0      0.0       4.8      18.1      22.6      27.0    362.74
    23     1  1996     2     1     260.9     0.0      0.0    0.0    0.0    0.0      2.2      0.0   -9.90      4.8      4.1     85      0.0      0.0   100      4.8     4.1      85     14.3    0.30     -9     -9     -9      0     -9     0.0     0.0      0    -9.00      0.0      0.0      0.0   100     0.0     0.000    -9.9    0.000    0.000      -9        0.00    0.000    0.000     260.9    130.8    0.30    62.5     123.0      66.0      60.6      47.5      40.8      30.0    0.000     0.000     0.000     0.077     0.076    0.30     0.10    0.21      0   -9.90   -9.00       18.2       22.2       22.1       22.1       22.1       22.0       22.0       22.0       22.0       22.0       22.0       22.0        0.2        0.1        0.0        0.0        0.0        0.0        0.0        0.0        0.0        0.0        0.0        0.0      0.0       4.5      16.8      21.3      25.8    362.74
    24     1  1996     3     1     258.1     0.0      0.0    0.0    0.0    0.0      0.6      0.0   -9.90      4.1      2.1     52      0.0      0.0   100      4.1     2.1      52     14.2    0.30     -9     -9     -9      0     -9     0.0     0.0      0    -9.00      0.0      0.0      0.0   100     0.0     0.000    -9.9    0.000    0.000      -9        0.00    0.000    0.000     258.1    128.2    0.30    60.1     123.0      66.0      60.6      47.0      40.8      30.0    0.000     0.000     0.000     0.077     0.075    0.30     0.10    0.22      0   -9.90   -9.00       16.0       22.0       22.0       22.0       22.0       22.0       22.0       22.0       22.0       22.0       22.0       22.0        0.2        0.1        0.0        0.0        0.0        0.0        0.0        0.0        0.0        0.0        0.0        0.0      0.0       4.1      16.8      21.2      25.6    362.74
    25     1  1996     4     1     260.4     5.3      0.0    0.0    5.3    0.0      0.1      0.0   -9.90      3.0      3.0    100      0.0      0.0   100      3.0     3.0     100     15.0    0.30     -9     -9     -9      0     -9     0.0     0.0      0    -9.00      0.0      0.0      0.0   100     0.0     0.000    -9.9    0.000    0.000      -9        0.00    0.000    0.000     260.4    130.5    0.30    62.3     123.0      66.0      60.6      45.6      40.8      30.0    0.000     0.000     0.000     0.077     0.075    0.30     0.10    0.20      0   -9.90   -9.00       18.3       22.0       22.0       22.0       22.0       22.0       22.0       22.0       22.0       22.0       22.0       22.0        0.2        0.1        0.0        0.0        0.0        0.0        0.0        0.0        0.0        0.0        0.0        0.0      5.3       2.7      17.4      22.0      26.6    362.74
    26     1  1996     5     1     273.9    16.2      0.0    0.0   15.9    0.3      0.0      0.0   -9.90      2.4      2.4    100      0.0      0.0   100      2.4     2.4     100     15.8    0.30     -9     -9     -9      0     -9     0.0     0.0      0    -9.00      0.0      0.0      0.0   100     0.0     0.000    -9.9    0.000    0.000      -9        0.00    0.000    0.000     273.9    144.0    0.30    75.9     123.0      66.0      60.6      45.0      40.8      30.0    0.000     0.000     0.000     0.077     0.074    0.30     0.09    0.14      0   -9.90   -9.00       31.9       22.0       22.0       22.0       22.0       22.0       22.0       22.0       22.0       22.0       22.0       22.0        0.2        0.1        0.0        0.0        0.0        0.0        0.0        0.0        0.0        0.0        0.0        0.0     16.2       2.2      18.2      22.8      27.4    362.74
    27     1  1996     6     1     267.9     5.6      0.0    0.0    5.6    0.0      7.6      0.0   -9.90      4.0      4.0    100      0.0      0.0   100      4.0     4.0     100     17.2    0.30     -9     -9     -9      0     -9     0.0     0.0      0    -9.00      0.0      0.0      0.0   100     0.0     0.000    -9.9    0.000    0.000      -9        0.00    0.000    0.000     267.9    137.4    0.30    68.7     123.0      66.0      60.6      46.6      40.8      30.0    0.000     0.000     0.000     0.077     0.066    0.30     0.08    0.15      0   -9.90   -9.00       23.9       22.5       22.3       22.2       22.2       22.2       22.1       22.1       22.1       22.1       22.1       22.1        0.1        0.1        0.1        0.0        0.0        0.0        0.0        0.0        0.0        0.0        0.0        0.0      5.6       3.7      20.5      26.6      32.7    362.74
    28     1  1996     7     1     260.7     0.0      0.0    0.0    0.0    0.0      3.1      0.0   -9.90      4.7      4.1     87      0.0      0.0   100      4.7     4.1      87     16.9    0.30     -9     -9     -9      0     -9     0.0     0.0      0    -9.00      0.0      0.0      0.0   100     0.0     0.000    -9.9    0.000    0.000      -9        0.00    0.000    0.000     260.7    130.6    0.30    62.3     123.0      66.0      60.6      47.3      40.8      30.0    0.000     0.000     0.000     0.077     0.063    0.30     0.08    0.16      0   -9.90   -9.00       18.0       22.2       22.1       22.1       22.1       22.1       22.0       22.0       22.0       22.0       22.0       22.0        0.1        0.1        0.1        0.0        0.0        0.0        0.0        0.0        0.0        0.0        0.0        0.0      0.0       4.3      19.8      25.4      30.9    362.74
    29     1  1996     8     1     264.0     0.0      8.0    0.0    8.0    0.0      0.6      0.0   -9.90      4.1      4.1    100      0.0      0.0   100      4.1     4.1     100     16.9    0.30     -9     -9     -9      0     -9     0.0     0.0      0    -9.00      0.0      0.0      0.0   100     0.0     0.000    -9.9    0.000    0.000      -9        0.00    0.000    0.000     264.0    134.1    0.30    65.9     123.0      66.0      60.6      47.1      40.8      30.0    0.077     0.000     0.000     0.154     0.139    0.30     0.18    0.33      0   -9.90   -9.00       21.9       22.0       22.0       22.0       22.0       22.0       22.0       22.0       22.0       22.0       22.0       22.0        0.4        0.1        0.1        0.0        0.0        0.0        0.0        0.0        0.0        0.0        0.0        0.0      0.0       4.2      21.7      23.9      26.0    362.74
    30     1  1996     9     1     260.0     0.0      0.0    0.0    0.0    0.0      0.1      0.0   -9.90      4.3      3.9     91      0.0      0.0   100      4.3     3.9      91     17.1    0.30     -9     -9     -9      0     -9     0.0     0.0      0    -9.00      0.0      0.0      0.0   100     0.0     0.000    -9.9    0.000    0.000      -9        0.00    0.000    0.000     260.0    130.1    0.30    62.0     123.0      66.0      60.6      47.3      40.8      30.0    0.000     0.000     0.000     0.154     0.138    0.30     0.18    0.37      0   -9.90   -9.00       18.0       22.0       22.0       22.0       22.0       22.0       22.0       22.0       22.0       22.0       22.0       22.0        0.3        0.1        0.1        0.0        0.0        0.0        0.0        0.0        0.0        0.0        0.0        0.0      0.0       4.3      20.1      24.1      28.1    362.74
    31     1  1996    10     2     257.2     0.0      0.0    0.0    0.0    0.0      0.0      0.0   -9.90      4.8      2.7     56      0.1      0.1   100      4.9     2.8      56     17.6    0.31     -9      0      0      0      0     0.8     0.8      0     0.01      0.1      0.1      0.1   100    17.7     0.002    -9.9    0.000    0.000     100        0.00    0.000    0.000     257.2    127.3    0.31    60.5     125.4      67.3      61.7      48.9      41.6      30.6    0.000     0.000     0.000     0.154     0.138    0.31     0.17    0.40      0   -9.90   -9.00       15.2       22.0       22.0       22.0       22.0       22.0       22.0       22.0       22.0       22.0       22.0       22.0        0.3        0.2        0.1        0.0        0.0        0.0        0.0        0.0        0.0        0.0        0.0        0.0      0.0       5.0      21.3      25.9      30.5    362.74
     1     2  1996    11     2     255.3     0.0      0.0    0.0    0.0    0.0      0.0      0.0   -9.90      4.9      1.8     37      0.1      0.1   100      4.9     1.9      38     18.6    0.32      1      0      0      0      0     0.9     0.9      0     0.02      0.1      0.1      0.1   100    17.7     0.005    -9.9    0.000    0.000     100        0.00    0.000    0.000     255.3    125.4    0.32    60.9     129.7      69.6      63.9      50.6      43.0      31.6    0.000     0.000     0.000     0.154     0.138    0.32     0.17    0.41      0   -9.90   -9.00       13.3       22.0       22.0       22.0       22.0       22.0       22.0       22.0       22.0       22.0       22.0       22.0        0.3        0.2        0.1        0.0        0.0        0.0        0.0        0.0        0.0        0.0        0.0        0.0      0.0       5.0      23.3      28.5      33.6    362.74
     2     2  1996    12     2     254.1     0.0      0.0    0.0    0.0    0.0      0.0      0.0   -9.90      4.1      1.2     28      0.1      0.1   100      4.2     1.2      29     18.7    0.33      2      0      0      0      0     1.0     1.0      0     0.02      0.1      0.1      0.1   100    17.7     0.008    -9.9    0.000    0.000     100        0.00    0.000    0.000     254.1    124.2    0.33    61.9     133.8      71.8      64.8      51.3      43.7      32.6    0.000     0.000     0.000     0.154     0.138    0.33     0.16    0.41      0   -9.90   -9.00       12.1       22.0       22.0       22.0       22.0       22.0       22.0       22.0       22.0       22.0       22.0       22.0        0.2        0.2        0.1        0.0        0.0        0.0        0.0        0.0        0.0        0.0        0.0        0.0      0.0       4.3      23.4      28.7      34.0    362.74
     3     2  1996    13     2     253.0     0.0      0.0    0.0    0.0    0.0      0.0      0.0   -9.90      4.3      1.0     23      0.1      0.1   100      4.4     1.1      24     17.6    0.34      4      0      0      0      0     1.1     1.1      0     0.02      0.1      0.1      0.1   100    17.7     0.012    -9.9    0.000    0.000     100        0.00    0.000    0.000     253.0    123.2    0.34    62.9     137.6      73.9      66.9      53.0      45.1      33.6    0.000     0.000     0.000     0.154     0.137    0.34     0.16    0.41      0   -9.90   -9.00       11.0       22.0       22.0       22.0       22.0       22.0       22.0       22.0       22.0       22.0       22.0       22.0        0.2        0.2        0.1        0.0        0.0        0.0        0.0        0.0        0.0        0.0        0.0        0.0      0.0       4.4      21.1      26.8      32.4    362.74
     4     2  1996    14     2     252.0     0.0      0.0    0.0    0.0    0.0      0.0      0.0   -9.90      4.9      0.9     19      0.1      0.1   100      5.0     1.0      21     16.4    0.34      7      0      0      0      0     1.3     1.3      0     0.02      0.1      0.1      0.1   100    17.7     0.016    -9.9    0.000    0.000      99        0.00    0.000    0.000     252.0    122.1    0.34    63.9     141.4      75.9      69.8      55.3      47.0      34.5    0.000     0.000     0.000     0.154     0.137    0.34     0.15    0.41      0   -9.90   -9.00       10.0       22.0       22.0       22.0       22.0       22.0       22.0       22.0       22.0       22.0       22.0       22.0        0.2        0.2        0.1        0.0        0.0        0.0        0.0        0.0        0.0        0.0        0.0        0.0      0.0       5.1      18.8      25.3      31.8    362.74
     5     2  1996    15     2     254.8     0.0      8.0    0.0    8.0    0.0      0.0      0.0   -9.90      5.1      5.1    100      0.1      0.1   100      5.2     5.2     100     16.9    0.35      0      0      0      0      0     1.4     1.4      0     0.03      0.1      0.1      0.1   100    17.7     0.020    -9.9    0.000    0.000      99        0.00    0.000    0.000     254.8    124.9    0.35    68.6     145.0      77.8      71.9      56.9      48.4      35.4    0.077     0.000     0.000     0.230     0.214    0.35     0.23    0.60      0   -9.90   -9.00       12.8       22.0       22.0       22.0       22.0       22.0       22.0       22.0       22.0       22.0       22.0       22.0        0.4        0.2        0.1        0.0        0.0        0.0        0.0        0.0        0.0        0.0        0.0        0.0      0.0       5.3      19.8      25.4      31.0    362.74
     6     2  1996    16     2     251.9     0.0      0.0    0.0    0.0    0.0      0.0      0.0   -9.90      5.1      2.7     53      0.1      0.1   100      5.2     2.8      54     16.0    0.36      3      0      0      0      0     1.6     1.6      0     0.03      0.1      0.1      0.1   100    17.7     0.025    -9.9    0.000    0.000      99        0.00    0.000    0.000     251.9    122.1    0.36    67.7     148.5      79.7      72.8      57.7      49.0      36.2    0.000     0.000     0.000     0.230     0.214    0.36     0.22    0.67      0   -9.90   -9.00        9.9       22.0       22.0       22.0       22.0       22.0       22.0       22.0       22.0       22.0       22.0       22.0        0.4        0.3        0.1        0.1        0.0        0.0        0.0        0.0        0.0        0.0        0.0        0.0      0.0       4.8      18.0      23.8      29.5    362.74
     7     2  1996    17     2     250.3     0.0      0.0    0.0    0.0    0.0      0.0      0.0   -9.90      5.4      1.5     27      0.2      0.2   100      5.6     1.7      30     16.6    0.37     10      0      0      0      0     1.8     1.8      0     0.03      0.2      0.2      0.2   100    17.7     0.031    -9.9    0.000    0.000      98        0.00    0.000    0.000     250.3    120.4    0.37    67.8     152.0      81.5      76.0      60.2      51.1      37.1    0.000     0.000     0.000     0.230     0.214    0.37     0.22    0.69      0   -9.90   -9.00        8.5       21.8       22.0       22.0       22.0       22.0       22.0       22.0       22.0       22.0       22.0       22.0        0.4        0.3        0.1        0.1        0.0        0.0        0.0        0.0        0.0        0.0        0.0        0.0      0.0       5.7      19.3      25.4      31.4    362.74
     8     2  1996    18     2     249.2     0.0      0.0    0.0    0.0    0.0      0.0      0.0   -9.90      4.6      0.9     20      0.2      0.2   100      4.8     1.1      23     15.9    0.38     10      0      0      0      0     2.0     2.0      0     0.04      0.2      0.2      0.2   100    17.7     0.038    -9.9    0.000    0.000      98        0.00    0.000    0.000     249.2    119.3    0.38    68.5     155.3      83.3      76.2      60.3      51.3      37.9    0.000     0.000     0.000     0.230     0.213    0.38     0.21    0.70      0   -9.90   -9.00        7.5       21.6       22.0       22.0       22.0       22.0       22.0       22.0       22.0       22.0       22.0       22.0        0.3        0.3        0.1        0.1        0.0        0.0        0.0        0.0        0.0        0.0        0.0        0.0      0.0       4.8      17.7      24.5      31.3    362.74
     9     2  1996    19     2     248.2     0.0      0.0    0.0    0.0    0.0      0.0      0.0   -9.90      4.6      0.7     16      0.2      0.2   100      4.8     0.9      20     16.6    0.39     12      0      0      0      0     2.3     2.3      0     0.04      0.2      0.2      0.2   100    17.7     0.045    -9.9    0.000    0.000      97        0.00    0.000    0.000     248.2    118.4    0.39    69.3     158.6      85.1      77.8      61.6      52.4      38.7    0.000     0.000     0.000     0.230     0.213    0.39     0.21    0.69      0   -9.90   -9.00        6.8       21.4       22.0       22.0       22.0       22.0       22.0       22.0       22.0       22.0       22.0       22.0        0.3        0.3        0.2        0.1        0.0        0.0        0.0        0.0        0.0        0.0        0.0        0.0      0.0       4.8      19.3      26.5      33.8    362.74
    10     2  1996    20     2     247.4     0.0      0.0    0.0    0.0    0.0      0.0      0.0   -9.90      4.9      0.7     13      0.2      0.2   100      5.1     0.9      17     16.3    0.39     16      0      0      0      0     2.6     2.6      0     0.05      0.2      0.2      0.2   100    17.7     0.053    -9.9    0.000    0.000      96        0.00    0.000    0.000     247.4    117.5    0.39    70.1     161.7      86.8      80.0      63.3      53.8      39.4    0.000     0.000     0.000     0.230     0.214    0.39     0.21    0.68      0   -9.90   -9.00        6.1       21.2       22.0       22.0       22.0       22.0       22.0       22.0       22.0       22.0       22.0       22.0        0.2        0.3        0.2        0.1        0.0        0.0        0.0        0.0        0.0        0.0        0.0        0.0      0.0       5.2      18.6      25.1      31.6    362.74
    11     2  1996    21     2     246.6     0.0      0.0    0.0    0.0    0.0      0.0      0.0   -9.90      4.6      0.5     11      0.2      0.2   100      4.8     0.8      16     15.9    0.40     17      0      0      0      0     2.8     2.8      0     0.05      0.2      0.2      0.2   100    17.7     0.062    -9.9    0.000    0.000      95        0.00    0.000    0.000     246.6    116.7    0.40    71.1     164.9      88.5      81.0      64.2      54.6      40.2    0.000     0.000     0.000     0.230     0.214    0.40     0.20    0.67      0   -9.90   -9.00        5.6       21.0       22.0       22.0       22.0       22.0       22.0       22.0       22.0       22.0       22.0       22.0        0.2        0.3        0.2        0.1        0.0        0.0        0.0        0.0        0.0        0.0        0.0        0.0      0.0       4.9      17.9      24.9      31.8    362.74
    12     2  1996    22     2     249.2     0.0      8.0    0.0    8.0    0.0      0.0      0.0   -9.90      5.1      5.1    100      0.3      0.3   100      5.4     5.4     100     15.9    0.41      3      0      0      0      0     3.2     3.2      0     0.06      0.3      0.3      0.3   100    17.7     0.072    -9.9    0.000    0.000      94        0.00    0.000    0.000     249.2    119.3    0.41    75.3     167.9      90.1      83.5      66.1      56.2      41.0    0.077     0.000     0.000     0.307     0.290    0.41     0.27    0.84      0   -9.90   -9.00        8.6       20.7       22.0       22.0       22.0       22.0       22.0       22.0       22.0       22.0       22.0       22.0        0.5        0.4        0.2        0.1        0.0        0.0        0.0        0.0        0.0        0.0        0.0        0.0      0.0       5.4      17.7      25.2      32.8    362.74
    13     2  1996    23     2     247.3     0.0      0.0    0.0    0.0    0.0      0.0      0.0   -9.90      4.6      1.6     35      0.3      0.3   100      4.9     1.9      39     18.0    0.42      8      0      0      0      0     3.6     3.6      0     0.06      0.3      0.3      0.3   100    17.7     0.083    -9.9    0.000    0.000      94        0.00    0.000    0.000     247.3    117.4    0.42    75.0     170.9      91.7      83.2      65.9      56.1      41.7    0.000     0.000     0.000     0.307     0.289    0.42     0.26    0.90      0   -9.90   -9.00        6.9       20.4       22.0       22.0       22.0       22.0       22.0       22.0       22.0       22.0       22.0       22.0        0.4        0.4        0.2        0.1        0.0        0.0        0.0        0.0        0.0        0.0        0.0        0.0      0.0       4.5      22.0      27.9      33.9    362.74
    14     2  1996    24     2     246.4     0.0      0.0    0.0    0.0    0.0      0.0      0.0   -9.90      4.4      0.5     12      0.3      0.3   100      4.8     0.9      19     16.9    0.42     14      0      0      0      0     4.1     4.1      0     0.07      0.3      0.3      0.3   100    17.7     0.096    -9.9    0.000    0.000      93        0.00    0.000    0.000     246.4    116.5    0.42    75.7     173.9      93.3      85.3      67.6      57.5      42.4    0.000     0.000     0.000     0.307     0.288    0.42     0.26    0.88      0   -9.90   -9.00        6.4       20.0       22.0       22.0       22.0       22.0       22.0       22.0       22.0       22.0       22.0       22.0        0.4        0.4        0.2        0.1        0.0        0.0        0.0        0.0        0.0        0.0        0.0        0.0      0.0       4.8      19.9      26.5      33.1    362.74
    15     2  1996    25     2     245.4     0.0      0.0    0.0    0.0    0.0      0.0      0.0   -9.90      5.4      0.6     10      0.5      0.5   100      5.9     1.0      17     15.9    0.43     22      0      0      0      0     4.5     4.5      0     0.08      0.5      0.5      0.5   100    17.7     0.110    -9.9    0.000    0.000      92        0.00    0.000    0.000     245.4    115.5    0.43    76.3     176.8      94.9      88.9      70.4      59.7      43.1    0.000     0.000     0.000     0.307     0.288    0.43     0.25    0.87      0   -9.90   -9.00        5.8       19.5       22.0       22.0       22.0       22.0       22.0       22.0       22.0       22.0       22.0       22.0        0.3        0.4        0.2        0.1        0.0        0.0        0.0        0.0        0.0        0.0        0.0        0.0      0.0       5.9      17.9      25.6      33.2    362.74
    16     2  1996    26     2     244.5     0.0      0.0    0.0    0.0    0.0      0.0      0.0   -9.90      5.1      0.4      8      0.5      0.5   100      5.6     0.9      17     17.4    0.44     23      0      0      0      0     5.0     5.0      0     0.09      0.5      0.5      0.5   100    17.7     0.126    -9.9    0.000    0.000      90        0.00    0.000    0.000     244.5    114.6    0.44    76.9     179.6      96.4      89.7      71.1      60.3      43.8    0.000     0.000     0.000     0.307     0.287    0.44     0.25    0.86      0   -9.90   -9.00        5.4       19.1       22.0       22.0       22.0       22.0       22.0       22.0       22.0       22.0       22.0       22.0        0.3        0.4        0.2        0.1        0.1        0.0        0.0        0.0        0.0        0.0        0.0        0.0      0.0       5.6      20.7      27.9      35.0    362.74
    17     2  1996    27     2     243.5     0.0      0.0    0.0    0.0    0.0      0.0      0.0   -9.90      5.2      0.4      7      0.6      0.6   100      5.8     0.9      16     17.9    0.44     27      0      0      0      0     5.5     5.5      0     0.10      0.6      0.6      0.6   100    17.7     0.143    -9.9    0.000    0.000      89        0.00    0.000    0.000     243.5    113.6    0.44    77.4     182.4      97.9      91.6      72.5      61.5      44.5    0.000     0.000     0.000     0.307     0.287    0.44     0.25    0.84      0   -9.90   -9.00        5.0       18.5       22.0       22.0       22.0       22.0       22.0       22.0       22.0       22.0       22.0       22.0        0.2        0.4        0.3        0.1        0.1        0.0        0.0        0.0        0.0        0.0        0.0        0.0      0.0       5.8      21.7      28.0      34.3    362.74
    18     2  1996    28     2     242.5     0.0      0.0    0.0    0.0    0.0      0.0      0.0   -9.90      5.3      0.4      7      0.6      0.6   100      6.0     1.0      17     16.6    0.45     31      0      0      0      0     6.0     6.0      0     0.10      0.6      0.6      0.6   100    17.7     0.161    -9.9    0.000    0.000      87        0.00    0.000    0.000     242.5    112.6    0.45    77.9     185.2      99.4      93.3      73.9      62.7      45.2    0.000     0.000     0.000     0.307     0.286    0.45     0.24    0.81      0   -9.90   -9.00        5.0       17.5       22.0       22.0       22.0       22.0       22.0       22.0       22.0       22.0       22.0       22.0        0.2        0.4        0.3        0.1        0.1        0.0        0.0        0.0        0.0        0.0        0.0        0.0      0.0       6.0      19.3      27.1      35.0    362.74
    19     2  1996    29     2     244.9     0.0      8.0    0.0    8.0    0.0      0.0      0.0   -9.90      5.0      5.0    100      0.7      0.7   100      5.6     5.6     100     16.4    0.46      7      0      0      0      0     6.8     6.8      0     0.12      0.7      0.7      0.7   100    17.7     0.182    -9.9    0.000    0.000      86        0.00    0.000    0.000     244.9    115.0    0.46    81.8     188.0     100.9      93.9      74.4      63.1      45.8    0.077     0.000     0.000     0.384     0.362    0.46     0.30    0.96      0   -9.90   -9.00        8.0       16.9       22.0       22.0       22.0       22.0       22.0       22.0       22.0       22.0       22.0       22.0        0.5        0.4        0.3        0.1        0.1        0.0        0.0        0.0        0.0        0.0        0.0        0.0      0.0       5.6      18.7      27.2      35.7    362.74
    20     2  1996    30     2     242.7     0.0      0.0    0.0    0.0    0.0      0.0      0.0   -9.90      5.0      1.5     30      0.7      0.7   100      5.7     2.2      39     16.6    0.47     19      0      0      0      0     7.5     7.5      0     0.13      0.7      0.7      0.7   100    17.7     0.205    -9.9    0.000    0.000      85        0.00    0.000    0.000     242.7    112.8    0.47    81.0     190.7     102.3      94.8      75.1      63.7      46.5    0.000     0.000     0.000     0.384     0.362    0.47     0.30    1.03      0   -9.90   -9.00        6.5       16.2       22.0       22.0       22.0       22.0       22.0       22.0       22.0       22.0       22.0       22.0        0.4        0.4        0.3        0.1        0.1        0.0        0.0        0.0        0.0        0.0        0.0        0.0      0.0       5.4      19.2      25.1      31.0    362.74
    21     2  1996    31     2     241.6     0.0      0.0    0.0    0.0    0.0      0.0      0.0   -9.90      4.7      0.3      7      0.8      0.8   100      5.4     1.1      20     16.6    0.47     27      0      0      0      0     8.3     8.3      0     0.14      0.8      0.8      0.8   100    17.7     0.230    -9.9    0.000    0.000      83        0.00    0.000    0.000     241.6    111.7    0.47    81.3     193.3     103.7      96.2      76.2      64.7      47.2    0.000     0.000     0.000     0.384     0.361    0.47     0.29    1.02      0   -9.90   -9.00        6.2       15.4       22.0       22.0       22.0       22.0       22.0       22.0       22.0       22.0       22.0       22.0        0.4        0.5        0.3        0.2        0.1        0.0        0.0        0.0        0.0        0.0        0.0        0.0      0.0       5.5      19.2      25.6      32.1    362.74
    22     2  1996    32     2     240.4     0.3      0.0    0.0    0.3    0.0      0.0      0.0   -9.90      5.0      0.6     11      0.9      0.9   100      5.9     1.5      25     16.8    0.48     32      0      0      0      0     9.0     9.0      0     0.15      0.9      0.9      0.9   100    17.7     0.257    -9.9    0.000    0.000      81        0.00    0.000    0.000     240.4    110.5    0.48    81.6     196.0     105.1      98.5      78.0      66.2      47.8    0.000     0.000     0.000     0.384     0.361    0.48     0.29    1.01      0   -9.90   -9.00        5.9       14.5       22.0       22.0       22.0       22.0       22.0       22.0       22.0       22.0       22.0       22.0        0.4        0.5        0.3        0.2        0.1        0.0        0.0        0.0        0.0        0.0        0.0        0.0      0.3       5.9      19.5      24.8      30.1    362.74
    23     2  1996    33     2     239.0     0.0      0.0    0.0    0.0    0.0      0.0      0.0   -9.90      5.6      0.3      6      1.1      1.1   100      6.8     1.4      21     17.0    0.48     48      0      0      0      0     9.6     9.6      0     0.16      1.1      1.1      1.1   100    17.7     0.286    -9.9    0.000    0.000      79        0.00    0.000    0.000     239.0    109.1    0.48    81.6     198.6     106.5     101.7      80.5      68.2      48.4    0.000     0.000     0.000     0.384     0.361    0.48     0.28    1.01      0   -9.90   -9.00        5.6       13.4       22.0       22.0       22.0       22.0       22.0       22.0       22.0       22.0       22.0       22.0        0.3        0.5        0.3        0.2        0.1        0.0        0.0        0.0        0.0        0.0        0.0        0.0      0.0       6.8      20.0      26.5      33.0    362.74
    24     2  1996    34     2     237.3     0.0      0.0    0.0    0.0    0.0      0.0      0.0   -9.90      7.2      0.3      5      1.5      1.4    94      8.7     1.7      20     17.6    0.49     85      6      0      0      0     9.8     9.8      0     0.17      1.5      1.4      1.4    94    17.7     0.314    -9.9    0.000    0.000      77        0.00    0.000    0.000     237.3    107.4    0.49    81.2     201.1     107.9     107.2      84.9      71.6      49.1    0.000     0.000     0.000     0.384     0.361    0.49     0.28    1.02      0   -9.90   -9.00        5.3       12.0       22.0       22.0       22.0       22.0       22.0       22.0       22.0       22.0       22.0       22.0        0.3        0.4        0.4        0.2        0.1        0.0        0.0        0.0        0.0        0.0        0.0        0.0      0.0       8.7      21.3      27.9      34.4    362.74
    25     2  1996    35     2     235.8     0.0      0.0    0.0    0.0    0.0      0.0      0.0   -9.90      6.4      0.2      4      1.3      1.3    94      7.8     1.5      19     17.9    0.50     83      6      0      0      0    10.1    10.1      0     0.17      1.3      1.3      1.3    94    17.7     0.343    -9.9    0.000    0.000      74        0.00    0.000    0.000     235.8    105.9    0.50    81.1     203.7     109.3     106.5      84.4      71.3      49.7    0.000     0.000     0.000     0.384     0.360    0.50     0.28    1.04      0   -9.90   -9.00        5.1       10.8       22.0       22.0       22.0       22.0       22.0       22.0       22.0       22.0       22.0       22.0        0.3        0.4        0.4        0.2        0.1        0.0        0.0        0.0        0.0        0.0        0.0        0.0      0.0       7.8      21.8      27.9      34.0    362.74
    26     2  1996    36     2     236.4     0.0      8.0    0.0    8.0    0.0      0.0      0.0   -9.90      6.1      6.1    100      1.4      1.4    99      7.5     7.5     100     17.2    0.50     32      1      0      0      0    11.0    11.0      0     0.19      1.4      1.4      1.4    99    17.7     0.375    -9.9    0.000    0.000      71        0.00    0.000    0.000     236.4    106.5    0.50    83.0     206.2     110.6     107.2      84.9      71.8      50.3    0.077     0.000     0.000     0.461     0.437    0.50     0.33    1.26      0   -9.90   -9.00        7.0        9.6       21.8       22.0       22.0       22.0       22.0       22.0       22.0       22.0       22.0       22.0        0.6        0.4        0.4        0.2        0.1        0.1        0.0        0.0        0.0        0.0        0.0        0.0      0.0       7.5      20.5      27.7      34.9    362.74
    27     2  1996    37     2     234.7     0.0      0.0    0.0    0.0    0.0      0.0      0.0   -9.90      6.1      0.4      6      1.3      1.3    97      7.4     1.7      23     18.1    0.51     71      3      0      0      0    11.4    11.4      0     0.19      1.3      1.3      1.3    97    17.7     0.408    -9.9    0.000    0.000      68        0.00    0.000    0.000     234.7    104.8    0.51    82.7     208.7     112.0     107.1      84.8      71.8      50.9    0.000     0.000     0.000     0.461     0.436    0.51     0.33    1.26      0   -9.90   -9.00        6.6        9.6       20.5       22.0       22.0       22.0       22.0       22.0       22.0       22.0       22.0       22.0        0.5        0.4        0.4        0.2        0.1        0.1        0.0        0.0        0.0        0.0        0.0        0.0      0.0       6.9      22.2      28.5      34.9    362.74
    28     2  1996    38     2     233.1     0.0      0.0    0.0    0.0    0.0      0.0      0.0   -9.90      6.3      0.2      3      1.5      1.3    90      7.7     1.5      20     16.9    0.51    100     10      0      0      0    11.4    11.4      0     0.19      1.5      1.3      1.3    90    17.7     0.439    -9.9    0.000    0.000      65        0.00    0.000    0.000     233.1    103.3    0.51    82.4     211.1     113.3     110.4      87.4      73.9      51.5    0.000     0.000     0.000     0.461     0.435    0.51     0.32    1.24      0   -9.90   -9.00        6.4        9.6       19.2       22.0       22.0       22.0       22.0       22.0       22.0       22.0       22.0       22.0        0.5        0.4        0.4        0.2        0.1        0.1        0.0        0.0        0.0        0.0        0.0        0.0      0.0       7.7      19.7      26.5      33.3    362.74
    29     2  1996    39     2     231.8     0.0      0.0    0.0    0.0    0.0      0.0      0.0   -9.90      5.6      0.2      3      1.3      1.2    90      7.0     1.4      20     17.2    0.52    100     10      0      0      0    11.4    11.4      0     0.19      1.3      1.2      1.2    90    17.7     0.470    -9.9    0.000    0.000      62        0.00    0.000    0.000     231.8    101.9    0.52    82.3     213.6     114.6     109.9      87.0      73.7      52.1    0.000     0.000     0.000     0.461     0.434    0.52     0.32    1.23      0   -9.90   -9.00        6.2        9.6       18.0       22.0       22.0       22.0       22.0       22.0       22.0       22.0       22.0       22.0        0.5        0.4        0.4        0.2        0.1        0.1        0.0        0.0        0.0        0.0        0.0        0.0      0.0       7.0      20.5      26.6      32.8    362.74
     1     3  1996    40     2     230.3     0.0      0.0    0.0    0.0    0.0      0.0      0.0   -9.90      6.3      0.2      3      1.5      1.3    83      7.8     1.5      19     17.8    0.53    100     17      0      0      0    11.4    11.4      0     0.19      1.5      1.3      1.3    83    17.7     0.498    -9.9    0.000    0.000      58        0.00    0.000    0.000     230.3    100.4    0.53    82.2     216.0     115.9     113.1      89.6      75.7      52.7    0.000     0.000     0.000     0.461     0.433    0.53     0.31    1.22      0   -9.90   -9.00        6.0        9.6       16.7       22.0       22.0       22.0       22.0       22.0       22.0       22.0       22.0       22.0        0.4        0.4        0.4        0.3        0.1        0.1        0.0        0.0        0.0        0.0        0.0        0.0      0.0       7.8      21.5      28.4      35.2    362.74
     2     3  1996    41     2     228.8     0.0      0.0    0.0    0.0    0.0      0.0      0.0   -9.90      6.9      0.2      3      1.6      1.3    78      8.5     1.5      17     17.7    0.53    100     22      0      0      0    11.4    11.4      0     0.19      1.6      1.3      1.3    78    17.7     0.525    -9.9    0.000    0.000      54        0.00    0.000    0.000     228.8     98.9    0.53    82.0     218.4     117.2     116.1      91.9      77.6      53.3    0.000     0.000     0.000     0.461     0.432    0.53     0.31    1.21      0   -9.90   -9.00        5.8        9.6       15.4       22.0       22.0       22.0       22.0       22.0       22.0       22.0       22.0       22.0        0.4        0.4        0.4        0.3        0.1        0.1        0.0        0.0        0.0        0.0        0.0        0.0      0.0       8.5      21.4      27.6      33.8    362.74
     3     3  1996    42     2     227.5     0.0      0.0    0.0    0.0    0.0      0.0      0.0   -9.90      5.9      0.2      3      1.4      1.1    80      7.3     1.3      18     18.0    0.54    100     20      0      0      0    11.4    11.4      0     0.19      1.4      1.1      1.1    80    17.7     0.552    -9.9    0.000    0.000      51        0.00    0.000    0.000     227.5     97.6    0.54    82.0     220.7     118.4     114.3      90.5      76.6      53.8    0.000     0.000     0.000     0.461     0.432    0.54     0.31    1.20      0   -9.90   -9.00        5.7        9.6       14.3       22.0       22.0       22.0       22.0       22.0       22.0       22.0       22.0       22.0        0.4        0.4        0.4        0.3        0.1        0.1        0.0        0.0        0.0        0.0        0.0        0.0      0.0       7.3      22.0      28.1      34.3    362.74
     4     3  1996    43     2     228.5     0.0      8.0    0.0    8.0    0.0      0.0      0.0   -9.90      5.8      5.8    100      1.5      1.2    84      7.3     7.0      97     18.4    0.54     68     16      0      0      0    11.9    11.9      0     0.20      1.5      1.2      1.2    84    17.7     0.582    -9.9    0.000    0.000      49        0.00    0.000    0.000     228.5     98.6    0.54    84.2     223.0     119.7     115.4      91.4      77.3      54.4    0.077     0.000     0.000     0.538     0.508    0.54     0.36    1.34      0   -9.90   -9.00        7.8        9.6       13.1       22.0       22.0       22.0       22.0       22.0       22.0       22.0       22.0       22.0        0.7        0.4        0.4        0.3        0.2        0.1        0.0        0.0        0.0        0.0        0.0        0.0      0.0       7.2      22.8      29.5      36.3    362.74
     5     3  1996    44     2     226.7     0.0      0.0    0.0    0.0    0.0      0.0      0.0   -9.90      5.8      0.6     11      1.5      1.2    80      7.3     1.8      25     19.2    0.55    100     20      0      0      0    11.9    11.9      0     0.20      1.5      1.2      1.2    80    17.7     0.610    -9.9    0.000    0.000      46        0.00    0.000    0.000     226.7     96.8    0.55    83.6     225.4     120.9     116.6      92.4      78.2      55.0    0.000     0.000     0.000     0.538     0.507    0.55     0.35    1.37      0   -9.90   -9.00        7.2        9.6       11.9       22.0       22.0       22.0       22.0       22.0       22.0       22.0       22.0       22.0        0.6        0.4        0.4        0.3        0.2        0.1        0.0        0.0        0.0        0.0        0.0        0.0      0.0       7.3      24.5      30.4      36.4    362.74
     6     3  1996    45     2     225.5     0.0      0.0    0.0    0.0    0.0      0.0      0.0   -9.90      5.3      0.2      3      1.3      1.1    80      6.7     1.2      19     19.0    0.56    100     20      0      0      0    11.9    11.9      0     0.20      1.3      1.1      1.1    80    17.7     0.638    -9.9    0.000    0.000      44        0.00    0.000    0.000     225.5     95.6    0.56    83.6     227.7     122.2     116.3      92.1      78.0      55.5    0.000     0.000     0.000     0.538     0.506    0.56     0.35    1.37      0   -9.90   -9.00        7.0        9.6       10.8       22.0       22.0       22.0       22.0       22.0       22.0       22.0       22.0       22.0        0.6        0.4        0.4        0.3        0.2        0.1        0.0        0.0        0.0        0.0        0.0        0.0      0.0       6.7      24.0      30.1      36.1    362.74
     7     3  1996    46     2     224.3     0.0      0.0    0.0    0.0    0.0      0.0      0.0   -9.90      5.2      0.2      3      1.3      1.0    78      6.4     1.2      18     18.6    0.56    100     22      0      0      0    11.9    11.9      0     0.20      1.3      1.0      1.0    78    17.7     0.666    -9.9    0.000    0.000      42        0.00    0.000    0.000     224.3     94.4    0.56    83.7     230.0     123.4     116.9      92.6      78.5      56.1    0.000     0.000     0.000     0.538     0.505    0.56     0.34    1.37      0   -9.90   -9.00        6.9        9.6        9.8       22.0       22.0       22.0       22.0       22.0       22.0       22.0       22.0       22.0        0.5        0.5        0.3        0.3        0.2        0.1        0.0        0.0        0.0        0.0        0.0        0.0      0.0       6.4      23.1      29.2      35.4    362.74
     8     3  1996    47     2     223.2     0.0      0.0    0.0    0.0    0.0      0.0      0.0   -9.90      4.6      0.1      3      1.1      0.9    79      5.7     1.0      18     18.6    0.57    100     21      0      0      0    11.9    11.9      0     0.20      1.1      0.9      0.9    79    17.7     0.694    -9.9    0.000    0.000      40        0.00    0.000    0.000     223.2     93.4    0.57    83.9     232.2     124.6     116.3      92.1      78.2      56.6    0.000     0.000     0.000     0.538     0.505    0.57     0.34    1.35      0   -9.90   -9.00        6.7        9.6        9.8       21.1       22.0       22.0       22.0       22.0       22.0       22.0       22.0       22.0        0.5        0.5        0.3        0.4        0.2        0.1        0.0        0.0        0.0        0.0        0.0        0.0      0.0       5.7      23.3      30.0      36.7    362.74
     9     3  1996    48     2     222.2     0.2      0.0    0.0    0.2    0.0      0.0      0.0   -9.90      5.1      0.3      6      1.3      1.0    75      6.4     1.3      20     19.1    0.57    100     25      0      0      0    11.9    11.9      0     0.20      1.3      1.0      1.0    75    17.7     0.721    -9.9    0.000    0.000      39        0.00    0.000    0.000     222.2     92.3    0.57    84.0     234.5     125.8     119.2      94.4      80.0      57.2    0.000     0.000     0.000     0.538     0.504    0.57     0.34    1.34      0   -9.90   -9.00        6.6        9.6        9.8       20.1       22.0       22.0       22.0       22.0       22.0       22.0       22.0       22.0        0.5        0.5        0.3        0.4        0.2        0.1        0.1        0.0        0.0        0.0        0.0        0.0      0.2       6.4      24.2      29.8      35.3    362.74
    10     3  1996    49     2     220.8     0.0      0.0    0.0    0.0    0.0      0.0      0.0   -9.90      7.0      0.2      3      1.8      1.1    64      8.8     1.3      15     18.1    0.58    100     36      0      0      0    11.9    11.9      0     0.20      1.8      1.1      1.1    64    17.7     0.744    -9.9    0.000    0.000      37        0.00    0.000    0.000     220.8     90.9    0.58    83.8     236.7     127.0     126.3     100.0      84.4      57.7    0.000     0.000     0.000     0.538     0.504    0.58     0.33    1.33      0   -9.90   -9.00        6.4        9.6        9.8       19.0       22.0       22.0       22.0       22.0       22.0       22.0       22.0       22.0        0.5        0.5        0.3        0.4        0.2        0.1        0.1        0.0        0.0        0.0        0.0        0.0      0.0       8.7      22.1      29.5      36.9    362.74
    11     3  1996    50     2     221.2     0.0      8.0    0.0    8.0    0.0      0.0      0.0   -9.90      8.5      6.4     75      2.1      1.3    61     10.6     7.7      73     18.6    0.58    100     39      0      0      0    11.9    11.9      0     0.20      2.1      1.3      1.3    61    17.7     0.765    -9.9    0.000    0.000      36        0.00    0.000    0.000     221.2     91.3    0.58    85.3     238.9     128.2     128.2     104.7      88.1      58.3    0.077     0.000     0.000     0.614     0.580    0.58     0.38    1.47      0   -9.90   -9.00        8.0        9.6        9.8       17.7       22.0       22.0       22.0       22.0       22.0       22.0       22.0       22.0        0.8        0.5        0.3        0.4        0.2        0.1        0.1        0.0        0.0        0.0        0.0        0.0      0.0      10.6      23.3      30.5      37.8    362.74
    12     3  1996    51     2     219.6     0.0      0.0    0.0    0.0    0.0      0.0      0.0   -9.90      8.4      0.3      4      2.1      1.2    59     10.5     1.6      15     19.1    0.59    100     41      1      0      0    11.9    11.9      0     0.20      2.1      1.2      1.2    59    17.7     0.786    -9.9    0.000    0.000      34        0.00    0.000    0.000     219.6     89.7    0.59    84.9     241.0     129.3     129.3     105.6      88.8      58.8    0.000     0.000     0.000     0.614     0.579    0.59     0.38    1.48      0   -9.90   -9.00        7.7        9.6        9.8       16.5       22.0       22.0       22.0       22.0       22.0       22.0       22.0       22.0        0.7        0.5        0.3        0.4        0.2        0.1        0.1        0.0        0.0        0.0        0.0        0.0      0.0      10.5      24.2      30.9      37.5    362.74
    13     3  1996    52     2     218.2     0.0      0.0    0.0    0.0    0.0      0.0      0.0   -9.90      7.9      0.3      4      2.0      1.1    58      9.9     1.4      14     18.6    0.59    100     42      2      0      0    11.9    11.9      0     0.20      2.0      1.1      1.1    58    17.7     0.807    -9.9    0.000    0.000      33        0.00    0.000    0.000     218.2     88.3    0.59    84.7     243.2     130.5     130.5     105.2      93.6      59.3    0.000     0.000     0.000     0.614     0.579    0.59     0.37    1.48      0   -9.90   -9.00        7.4        9.6        9.8       15.3       22.0       22.0       22.0       22.0       22.0       22.0       22.0       22.0        0.7        0.5        0.3        0.3        0.2        0.1        0.1        0.0        0.0        0.0        0.0        0.0      0.0       9.9      23.3      30.0      36.7    362.74
    14     3  1996    53     2     216.8     0.0      0.0    0.0    0.0    0.0      0.0      0.0   -9.90      7.9      0.3      3      2.0      1.1    56      9.9     1.4      14     18.7    0.60    100     44      2      0      0    11.9    11.9      0     0.20      2.0      1.1      1.1    56    17.7     0.826    -9.9    0.000    0.000      32        0.00    0.000    0.000     216.8     86.9    0.60    84.4     245.3     131.6     131.6     106.0      94.3      59.8    0.000     0.000     0.000     0.614     0.578    0.60     0.37    1.48      0   -9.90   -9.00        7.2        9.6        9.8       14.2       22.0       22.0       22.0       22.0       22.0       22.0       22.0       22.0        0.6        0.5        0.3        0.3        0.3        0.1        0.1        0.0        0.0        0.0        0.0        0.0      0.0       9.8      23.4      29.1      34.8    362.74
    15     3  1996    54     2     215.6     0.0      0.0    0.0    0.0    0.0      0.0      0.0   -9.90      7.0      0.2      3      1.7      1.0    57      8.7     1.2      14     18.4    0.60    100     43      2      0      0    11.9    11.9      0     0.20      1.7      1.0      1.0    57    17.7     0.846    -9.9    0.000    0.000      31        0.00    0.000    0.000     215.6     85.7    0.60    84.3     247.4     132.7     131.9     104.4      93.5      60.3    0.000     0.000     0.000     0.614     0.578    0.60     0.36    1.48      0   -9.90   -9.00        7.0        9.6        9.8       13.2       22.0       22.0       22.0       22.0       22.0       22.0       22.0       22.0        0.6        0.5        0.3        0.3        0.3        0.1        0.1        0.0        0.0        0.0        0.0        0.0      0.0       8.7      22.9      27.6      32.4    362.74
    16     3  1996    55     2     214.5     0.0      0.0    0.0    0.0    0.0      0.0      0.0   -9.90      6.3      0.2      3      1.6      0.9    58      7.8     1.1      14     18.2    0.61    100     42      1      0      0    11.9    11.9      0     0.20      1.6      0.9      0.9    58    17.7     0.867    -9.9    0.000    0.000      30        0.00    0.000    0.000     214.5     84.6    0.61    84.4     249.4     133.8     130.6     103.4      93.0      60.8    0.000     0.000     0.000     0.614     0.576    0.61     0.36    1.48      0   -9.90   -9.00        6.8        9.6        9.8       12.4       22.0       22.0       22.0       22.0       22.0       22.0       22.0       22.0        0.6        0.5        0.4        0.3        0.3        0.1        0.1        0.0        0.0        0.0        0.0        0.0      0.0       7.8      22.5      26.6      30.8    362.74
    17     3  1996    56     2     213.5     0.0      0.0    0.0    0.0    0.0      0.0      0.0   -9.90      6.4      0.2      3      1.6      0.9    55      7.9     1.0      13     19.1    0.61    100     45      2      0      0    11.8    11.8      0     0.20      1.6      0.9      0.9    55    17.7     0.886    -9.9    0.000    0.000      29        0.00    0.000    0.000     213.5     83.6    0.61    83.3     249.4     133.8     130.9     103.7      93.2      60.8    0.000     0.000     0.000     0.614     0.574    0.61     0.36    1.49      0   -9.90   -9.00        6.6        9.6        9.8       11.5       22.0       22.0       22.0       22.0       22.0       22.0       22.0       22.0        0.5        0.5        0.4        0.3        0.3        0.2        0.1        0.0        0.0        0.0        0.0        0.0      0.0       7.9      24.2      27.5      30.9    362.74
    18     3  1996    57     2     214.2     0.0      8.0    0.0    8.0    0.0      0.0      0.0   -9.90      7.4      6.3     85      1.8      1.0    53      9.3     7.3      79     18.4    0.61    100     47      0      0      0    11.8    11.8      0     0.20      1.8      1.0      1.0    53    17.7     0.904    -9.9    0.000    0.000      28        0.00    0.000    0.000     214.2     84.3    0.61    84.0     249.4     133.8     133.8     106.6      95.1      60.8    0.077     0.000     0.000     0.691     0.649    0.61     0.41    1.62      0   -9.90   -9.00        8.2        9.6        9.8       10.5       22.0       22.0       22.0       22.0       22.0       22.0       22.0       22.0        0.8        0.5        0.4        0.3        0.3        0.2        0.1        0.0        0.0        0.0        0.0        0.0      0.0       9.3      22.8      26.4      29.9    362.74
    19     3  1996    58     2     212.9     0.0      0.0    0.0    0.0    0.0      0.0      0.0   -9.90      7.6      0.3      4      1.9      0.9    50      9.4     1.2      13     18.7    0.61    100     50      5      0      0    11.8    11.8      0     0.20      1.9      0.9      0.9    50    17.7     0.922    -9.9    0.000    0.000      27        0.00    0.000    0.000     212.9     83.0    0.61    82.8     249.4     133.8     133.8     106.9      95.3      60.8    0.000     0.000     0.000     0.691     0.646    0.61     0.40    1.64      0   -9.90   -9.00        7.9        9.6        9.8       10.0       21.6       22.0       22.0       22.0       22.0       22.0       22.0       22.0        0.8        0.5        0.4        0.3        0.3        0.2        0.1        0.0        0.0        0.0        0.0        0.0      0.0       9.4      23.4      26.5      29.6    362.74
    20     3  1996    59     3     211.7     0.0      0.0    0.0    0.0    0.0      0.0      0.0   -9.90      7.9      0.3      4      1.9      0.9    46      9.9     1.2      12     17.9    0.61    100     54      6      0      0    11.8    11.8      0     0.20      1.9      0.9      0.9    46    17.7     0.938    -9.9    0.000    0.000      27        0.00    0.000    0.000     211.7     81.9    0.61    81.6     249.4     133.8     133.8     107.9      96.0      60.8    0.000     0.000     0.000     0.691     0.644    0.61     0.40    1.65      0   -9.90   -9.00        7.6        9.6        9.8       10.0       20.7       22.0       22.0       22.0       22.0       22.0       22.0       22.0        0.7        0.6        0.4        0.3        0.3        0.2        0.1        0.0        0.0        0.0        0.0        0.0      0.0       9.9      21.9      25.5      29.1    362.74
    21     3  1996    60     3     210.7     0.0      0.0    0.0    0.0    0.0      0.0      0.0   -9.90      7.5      0.3      3      1.8      0.8    45      9.3     1.1      12     18.4    0.61    100     55      7      0      0    11.8    11.8      0     0.20      1.8      0.8      0.8    45    17.7     0.954    -9.9    0.000    0.000      26        0.00    0.000    0.000     210.7     80.8    0.61    80.5     249.4     133.8     133.8     106.7      95.2      60.8    0.000     0.000     0.000     0.691     0.641    0.61     0.40    1.66      0   -9.90   -9.00        7.4        9.6        9.8       10.0       19.9       22.0       22.0       22.0       22.0       22.0       22.0       22.0        0.7        0.6        0.4        0.3        0.3        0.2        0.1        0.1        0.0        0.0        0.0        0.0      0.0       9.3      22.7      26.4      30.2    362.74
    22     3  1996    61     3     209.6     0.0      0.0    0.0    0.0    0.0      0.0      0.0   -9.90      7.6      0.3      3      1.8      0.8    42      9.4     1.0      11     18.4    0.61    100     58      9      0      0    11.7    11.7      0     0.19      1.8      0.8      0.8    42    17.7     0.968    -9.9    0.000    0.000      25        0.00    0.000    0.000     209.6     79.7    0.61    79.5     249.4     133.8     133.8     107.0      95.4      60.8    0.000     0.000     0.000     0.691     0.638    0.61     0.40    1.67      0   -9.90   -9.00        7.1        9.6        9.8       10.0       19.1       22.0       22.0       22.0       22.0       22.0       22.0       22.0        0.7        0.6        0.4        0.3        0.3        0.2        0.1        0.1        0.0        0.0        0.0        0.0      0.0       9.5      22.9      26.5      30.2    362.74
    23     3  1996    62     3     208.8     0.0      0.0    0.0    0.0    0.0      0.0      0.0   -9.90      6.1      0.2      3      1.5      0.6    44      7.6     0.8      11     18.2    0.61    100     56      7      0      0    11.7    11.7      0     0.19      1.5      0.6      0.6    44    17.7     0.983     1.3    0.013    0.264      25        0.01    0.000    0.000     208.8     78.9    0.61    78.6     249.4     133.8     130.1     103.0      92.7      60.8    0.000     0.000     0.000     0.691     0.635    0.61     0.40    1.67      0   -9.90   -9.00        6.9        9.6        9.8       10.0       18.4       22.0       22.0       22.0       22.0       22.0       22.0       22.0        0.6        0.6        0.4        0.3        0.3        0.2        0.1        0.1        0.0        0.0        0.0        0.0      0.0       7.6      22.5      26.4      30.3    362.74
    24     3  1996    63     3     207.8     0.0      0.0    0.0    0.0    0.0      0.0      0.0   -9.90      8.3      0.3      3      2.0      0.7    37     10.3     1.0       9     17.6    0.61    100     63     13      0      0    11.6    11.6      0     0.19      2.0      0.7      0.7    37    17.7     0.996     1.5    0.015    0.303      24        0.01    0.000    0.000     207.8     77.9    0.61    77.7     249.4     133.8     133.8     108.9      96.7      60.8    0.000     0.000     0.000     0.691     0.632    0.61     0.40    1.68      0   -9.90   -9.00        6.7        9.6        9.8       10.0       17.7       22.0       22.0       22.0       22.0       22.0       22.0       22.0        0.6        0.6        0.4        0.3        0.3        0.2        0.1        0.1        0.0        0.0        0.0        0.0      0.0      10.3      21.2      25.5      29.8    362.74
    25     3  1996    64     3     208.7     0.0      8.0    0.0    8.0    0.0      0.0      0.0   -9.90      7.6      6.4     84      1.8      0.7    40      9.4     7.1      76     17.2    0.61    100     60      0      0      0    11.6    11.6      0     0.19      1.8      0.7      0.7    40    17.7     1.009     1.7    0.018    0.351      24        0.01    0.000    0.000     208.7     78.8    0.61    78.6     249.4     133.8     133.8     106.9      95.3      60.8    0.077     0.000     0.000     0.768     0.706    0.61     0.44    1.79      0   -9.90   -9.00        8.3        9.6        9.8       10.0       17.0       22.0       22.0       22.0       22.0       22.0       22.0       22.0        0.9        0.6        0.4        0.3        0.3        0.2        0.1        0.1        0.0        0.0        0.0        0.0      0.0       9.4      20.5      25.1      29.7    362.74
    26     3  1996    65     3     207.8     0.0      0.0    0.0    0.0    0.0      0.0      0.0   -9.90      7.4      0.3      4      1.8      0.7    38      9.2     1.0      11     17.5    0.61    100     62     12      0      0    11.6    11.6      0     0.19      1.8      0.7      0.7    38    17.7     1.022     2.0    0.020    0.406      23        0.01    0.000    0.000     207.8     77.9    0.61    77.6     249.4     133.8     133.8     106.5      95.1      60.8    0.000     0.000     0.000     0.768     0.703    0.61     0.44    1.80      0   -9.90   -9.00        8.0        9.6        9.8       10.0       16.3       22.0       22.0       22.0       22.0       22.0       22.0       22.0        0.8        0.6        0.4        0.3        0.3        0.2        0.1        0.1        0.0        0.0        0.0        0.0      0.0       9.2      21.0      25.4      29.9    362.74
    27     3  1996    66     3     206.9     0.0      0.0    0.0    0.0    0.0      0.0      0.0   -9.90      7.3      0.3      4      1.7      0.6    37      9.0     0.9      10     18.2    0.61    100     63     13      0      0    11.5    11.5      0     0.19      1.7      0.6      0.6    37    17.7     1.034     2.3    0.023    0.468      22        0.02    0.000    0.000     206.9     77.0    0.61    76.7     249.4     133.8     133.8     106.1      94.8      60.8    0.000     0.000     0.000     0.768     0.700    0.61     0.44    1.82      0   -9.90   -9.00        7.8        9.6        9.8       10.0       15.7       22.0       22.0       22.0       22.0       22.0       22.0       22.0        0.8        0.6        0.4        0.3        0.3        0.2        0.1        0.1        0.0        0.0        0.0        0.0      0.0       9.1      22.5      26.2      30.0    362.74
    28     3  1996    67     3     206.1     0.0      0.0    0.0    0.0    0.0      0.0      0.0   -9.90      6.6      0.2      4      1.5      0.6    36      8.1     0.8      10     18.0    0.61    100     64     13      0      0    11.4    11.4      0     0.19      1.5      0.6      0.6    36    17.7     1.046     2.6    0.027    0.540      22        0.02    0.000    0.000     206.1     76.2    0.61    75.9     249.4     133.8     131.7     104.3      93.5      60.8    0.000     0.000     0.000     0.768     0.697    0.61     0.44    1.82      0   -9.90   -9.00        7.5        9.6        9.8       10.0       15.1       22.0       22.0       22.0       22.0       22.0       22.0       22.0        0.8        0.6        0.4        0.3        0.3        0.2        0.1        0.1        0.0        0.0        0.0        0.0      0.0       8.2      22.0      26.0      30.0    362.74
    29     3  1996    68     3     205.2     0.0      0.0    0.0    0.0    0.0      0.0      0.0   -9.90      8.0      0.3      3      1.8      0.6    32      9.8     0.8       9     18.4    0.61    100     68     18      0      0    11.4    11.4      0     0.18      1.8      0.6      0.6    32    17.7     1.056     2.9    0.031    0.619      22        0.02    0.000    0.000     205.2     75.3    0.61    75.1     249.4     133.8     133.8     107.9      96.0      60.8    0.000     0.000     0.000     0.768     0.694    0.61     0.43    1.84      0   -9.90   -9.00        7.2        9.6        9.8       10.0       14.6       22.0       22.0       22.0       22.0       22.0       22.0       22.0        0.7        0.6        0.4        0.3        0.3        0.2        0.1        0.1        0.0        0.0        0.0        0.0      0.0       9.9      22.8      26.2      29.6    362.74
    30     3  1996    69     3     204.6     0.0      0.0    0.0    0.0    0.0      0.0      0.0   -9.90      6.1      0.2      3      1.4      0.5    34      7.5     0.7       9     18.9    0.61    100     66     15      0      0    11.3    11.3      0     0.18      1.4      0.5      0.5    34    17.7     1.067     3.3    0.036    0.711      21        0.02    0.000    0.000     204.6     74.7    0.61    74.4     249.4     133.8     129.8     102.8      92.6      60.8    0.000     0.000     0.000     0.768     0.690    0.61     0.43    1.84      0   -9.90   -9.00        7.0        9.6        9.8       10.0       14.1       22.0       22.0       22.0       22.0       22.0       22.0       22.0        0.7        0.7        0.5        0.3        0.3        0.2        0.1        0.1        0.0        0.0        0.0        0.0      0.0       7.5      23.8      26.6      29.5    362.74
    31     3  1996    70     3     204.0     0.5      0.0    0.0    0.5    0.0      0.0      0.0   -9.90      6.1      0.6     10      1.3      0.4    32      7.4     1.1      14     18.2    0.61    100     68     16      0      0    11.2    11.2      0     0.18      1.3      0.4      0.4    32    17.7     1.077     3.8    0.041    0.815      21        0.03    0.000    0.000     204.0     74.1    0.61    73.9     249.4     133.8     129.6     102.7      92.5      60.8    0.000     0.000     0.000     0.768     0.687    0.61     0.43    1.84      0   -9.90   -9.00        6.9        9.6        9.8       10.0       13.7       22.0       22.0       22.0       22.0       22.0       22.0       22.0        0.7        0.7        0.5        0.3        0.3        0.3        0.1        0.1        0.0        0.0        0.0        0.0      0.5       7.5      22.4      26.2      30.1    362.74
     1     4  1996    71     3     206.2     1.4      8.0    0.0    9.4    0.0      0.0      0.0   -9.90      6.7      6.7    100      1.3      0.5    38      8.0     7.2      90     18.1    0.61     94     62      0      0      0    11.2    11.2      0     0.18      1.3      0.5      0.5    38    17.7     1.089     4.3    0.047    0.937      20        0.03    0.000    0.000     206.2     76.3    0.61    76.1     249.4     133.8     129.6     102.6      92.4      60.8    0.077     0.000     0.000     0.845     0.761    0.61     0.48    1.86      0   -9.90   -9.00        9.6        9.6        9.8       10.0       13.2       22.0       22.0       22.0       22.0       22.0       22.0       22.0        1.0        0.6        0.5        0.3        0.3        0.3        0.2        0.1        0.0        0.0        0.0        0.0      1.4       7.4      22.3      26.2      30.2    362.74
     2     4  1996    72     3     205.5     1.8      0.0    0.0    1.8    0.0      0.0      0.0   -9.90      5.9      2.0     34      1.2      0.4    38      7.1     2.5      35     18.4    0.61    100     62      8      0      0    11.2    11.2      0     0.18      1.2      0.4      0.4    38    17.7     1.101     4.9    0.054    1.076      20        0.03    0.000    0.000     205.5     75.7    0.61    75.4     249.4     133.8     127.2     100.7      85.3      60.8    0.000     0.000     0.000     0.845     0.757    0.61     0.47    1.87      0   -9.90   -9.00        9.4        9.6        9.8       10.0       12.7       22.0       22.0       22.0       22.0       22.0       22.0       22.0        0.9        0.6        0.5        0.3        0.3        0.3        0.2        0.1        0.0        0.0        0.0        0.0      1.8       6.6      22.8      26.5      30.2    362.74
     3     4  1996    73     3     204.8     0.4      0.0    0.0    0.4    0.0      0.0      0.0   -9.90      5.7      0.7     12      1.1      0.4    36      6.9     1.1      16     18.6    0.61    100     64     11      0      0    11.1    11.1      0     0.18      1.1      0.4      0.4    36    17.7     1.112     5.5    0.062    1.232      20        0.04    0.000    0.000     204.8     75.0    0.61    74.7     249.4     133.8     126.6     100.3      90.9      60.8    0.000     0.000     0.000     0.845     0.754    0.61     0.47    1.88      0   -9.90   -9.00        9.1        9.6        9.8       10.0       12.3       22.0       22.0       22.0       22.0       22.0       22.0       22.0        0.9        0.6        0.5        0.3        0.3        0.3        0.2        0.1        0.1        0.0        0.0        0.0      0.4       6.4      23.2      27.0      30.9    362.74
     4     4  1996    74     3     204.3     1.4      0.0    0.0    1.4    0.0      0.0      0.0   -9.90      5.3      1.6     30      1.0      0.4    36      6.3     2.0      31     18.0    0.61    100     64     10      0      0    11.1    11.1      0     0.18      1.0      0.4      0.4    36    17.7     1.123     6.3    0.070    1.408      19        0.04    0.000    0.000     204.3     74.4    0.61    74.1     249.4     133.8     125.2      99.2      90.1      60.8    0.000     0.000     0.000     0.845     0.751    0.61     0.47    1.89      0   -9.90   -9.00        8.9        9.6        9.8       10.0       12.0       22.0       22.0       22.0       22.0       22.0       22.0       22.0        0.9        0.6        0.5        0.3        0.3        0.3        0.2        0.1        0.1        0.0        0.0        0.0      1.4       5.8      22.0      26.6      31.1    362.74
     5     4  1996    75     3     203.8     1.0      0.0    0.0    1.0    0.0      0.0      0.0   -9.90      4.9      1.2     24      0.9      0.3    35      5.8     1.5      26     18.8    0.61    100     65     11      0      0    11.1    11.1      0     0.17      0.9      0.3      0.3    35    17.7     1.134     7.1    0.080    1.605      19        0.05    0.000    0.000     203.8     73.9    0.61    73.6     249.4     133.8     124.0      98.2      89.4      60.8    0.000     0.000     0.000     0.845     0.747    0.61     0.47    1.90      0   -9.90   -9.00        8.7        9.6        9.8       10.0       11.6       22.0       22.0       22.0       22.0       22.0       22.0       22.0        0.9        0.6        0.5        0.3        0.3        0.3        0.2        0.1        0.1        0.0        0.0        0.0      1.0       5.4      23.5      28.4      33.2    362.74
     6     4  1996    76     3     203.2     0.0      0.0    0.0    0.0    0.0      0.0      0.0   -9.90      4.9      0.2      4      0.9      0.3    34      5.8     0.5       9     19.7    0.61    100     66     14      0      0    11.0    11.0      0     0.17      0.9      0.3      0.3    34    17.7     1.145     8.0    0.091    1.824      19        0.05    0.000    0.000     203.2     73.4    0.61    73.1     249.4     133.8     123.9      98.1      89.4      60.8    0.000     0.000     0.000     0.845     0.744    0.61     0.47    1.90      0   -9.90   -9.00        8.5        9.6        9.8       10.0       11.3       22.0       22.0       22.0       22.0       22.0       22.0       22.0        0.8        0.7        0.5        0.3        0.3        0.3        0.2        0.1        0.1        0.0        0.0        0.0      0.0       5.4      25.4      29.8      34.2    362.74
     7     4  1996    77     3     202.6     0.0      0.0    0.0    0.0    0.0      0.0      0.0   -9.90      6.7      0.3      4      1.3      0.4    29      7.9     0.6       8     19.9    0.61    100     71     20      0      0    10.9    10.9      0     0.17      1.3      0.4      0.4    29    17.7     1.153     8.9    0.103    2.061      18        0.06    0.000    0.000     202.6     72.7    0.61    72.4     249.4     133.8     129.4     102.5      92.3      60.8    0.000     0.000     0.000     0.845     0.740    0.61     0.46    1.92      0   -9.90   -9.00        8.2        9.6        9.8       10.0       11.0       22.0       22.0       22.0       22.0       22.0       22.0       22.0        0.8        0.7        0.5        0.3        0.3        0.3        0.2        0.1        0.1        0.0        0.0        0.0      0.0       7.4      25.7      30.5      35.2    362.74
     8     4  1996    78     3     203.9     0.0      8.0    0.0    8.0    0.0      0.0      0.0   -9.90      6.4      6.3     98      1.3      0.4    31      7.8     6.7      86     19.9    0.61    100     69      0      0      0    10.9    10.9      0     0.17      1.3      0.4      0.4    31    17.7     1.163    10.0    0.116    2.327      18        0.07    0.000    0.000     203.9     74.0    0.61    73.7     249.4     133.8     130.8     103.6      93.1      60.8    0.077     0.000     0.000     0.922     0.814    0.61     0.51    2.00      0   -9.90   -9.00        9.9        9.6        9.8       10.0       10.5       22.0       22.0       22.0       22.0       22.0       22.0       22.0        1.1        0.6        0.5        0.3        0.2        0.3        0.2        0.1        0.1        0.0        0.0        0.0      0.0       7.9      25.7      30.8      35.9    362.74
     9     4  1996    79     3     203.1     0.0      0.0    0.0    0.0    0.0      0.0      0.0   -9.90      6.3      0.4      6      1.3      0.4    30      7.6     0.8      10     20.1    0.61    100     70     19      0      0    10.9    10.9      0     0.17      1.3      0.4      0.4    30    17.7     1.172    11.1    0.130    2.605      18        0.07    0.000    0.000     203.1     73.2    0.61    72.9     249.4     133.8     129.6     102.7      86.8      60.8    0.000     0.000     0.000     0.922     0.810    0.61     0.51    2.02      0   -9.90   -9.00        9.5        9.6        9.8       10.0       10.2       22.0       22.0       22.0       22.0       22.0       22.0       22.0        1.0        0.7        0.5        0.3        0.2        0.3        0.2        0.1        0.1        0.0        0.0        0.0      0.0       7.5      26.2      31.1      36.0    362.74
    10     4  1996    80     3     202.4     0.0      0.0    0.0    0.0    0.0      0.0      0.0   -9.90      5.7      0.3      6      1.2      0.3    29      6.8     0.7      10     20.3    0.61    100     71     20      0      0    10.8    10.8      0     0.17      1.2      0.3      0.3    29    17.7     1.180    12.2    0.144    2.886      17        0.08    0.000    0.000     202.4     72.6    0.61    72.3     249.4     133.8     128.2     101.5      91.7      60.8    0.000     0.000     0.000     0.922     0.807    0.61     0.51    2.04      0   -9.90   -9.00        9.2        9.6        9.8       10.0       10.0       21.8       22.0       22.0       22.0       22.0       22.0       22.0        1.0        0.7        0.5        0.4        0.2        0.3        0.2        0.1        0.1        0.0        0.0        0.0      0.0       6.9      26.6      30.8      35.0    362.74
    11     4  1996    81     3     201.7     0.0      0.0    0.0    0.0    0.0      0.0      0.0   -9.90      7.5      0.4      5      1.5      0.4    24      9.0     0.7       8     20.4    0.61    100     76     27      0      0    10.8    10.8      0     0.17      1.5      0.4      0.4    24    17.7     1.187    13.3    0.158    3.161      17        0.09    0.000    0.000     201.7     71.8    0.61    71.5     249.4     133.8     133.8     106.3      94.9      60.8    0.000     0.000     0.000     0.922     0.803    0.61     0.50    2.06      0   -9.90   -9.00        8.8        9.6        9.8       10.0       10.0       21.5       22.0       22.0       22.0       22.0       22.0       22.0        0.9        0.7        0.5        0.4        0.2        0.3        0.2        0.1        0.1        0.0        0.0        0.0      0.0       9.2      26.7      31.2      35.8    362.74
    12     4  1996    82     3     201.0     0.0      0.0    0.0    0.0    0.0      0.0      0.0   -9.90      7.1      0.3      5      1.4      0.3    23      8.5     0.7       8     20.6    0.61    100     77     28      0      0    10.7    10.7      0     0.16      1.4      0.3      0.3    23    17.7     1.194    14.4    0.172    3.436      17        0.10    0.000    0.000     201.0     71.2    0.61    70.9     249.4     133.8     132.9     105.2      94.2      60.8    0.000     0.000     0.000     0.922     0.800    0.61     0.50    2.07      0   -9.90   -9.00        8.5        9.6        9.8       10.0       10.0       21.1       22.0       22.0       22.0       22.0       22.0       22.0        0.9        0.7        0.5        0.4        0.2        0.3        0.2        0.1        0.1        0.0        0.0        0.0      0.0       8.7      27.3      31.3      35.3    362.74
    13     4  1996    83     3     200.5     0.0      0.0    0.0    0.0    0.0      0.0      0.0   -9.90      6.3      0.3      4      1.2      0.3    23      7.5     0.6       7     20.4    0.61    100     77     28      0      0    10.6    10.6      0     0.16      1.2      0.3      0.3    23    17.7     1.201    15.5    0.186    3.712      17        0.10    0.000    0.000     200.5     70.6    0.61    70.3     249.4     133.8     130.3     103.2      92.8      60.8    0.000     0.000     0.000     0.922     0.796    0.61     0.50    2.08      0   -9.90   -9.00        8.2        9.6        9.8       10.0       10.0       20.8       22.0       22.0       22.0       22.0       22.0       22.0        0.9        0.7        0.5        0.4        0.2        0.3        0.2        0.1        0.1        0.0        0.0        0.0      0.0       7.7      26.8      31.0      35.3    362.74
    14     4  1996    84     3     200.0     0.0      0.0    0.0    0.0    0.0      0.0      0.0   -9.90      6.1      0.2      4      1.2      0.3    22      7.3     0.5       7     19.6    0.61    100     78     30      0      0    10.5    10.5      0     0.16      1.2      0.3      0.3    22    17.7     1.207    16.5    0.199    3.988      16        0.11    0.000    0.000     200.0     70.1    0.61    69.8     249.4     133.8     129.5     102.6      92.4      60.8    0.000     0.000     0.000     0.922     0.792    0.61     0.50    2.09      0   -9.90   -9.00        8.0        9.6        9.8       10.0       10.0       20.6       22.0       22.0       22.0       22.0       22.0       22.0        0.8        0.7        0.5        0.4        0.2        0.3        0.2        0.1        0.1        0.0        0.0        0.0      0.0       7.4      25.3      30.3      35.3    362.74
    15     4  1996    85     3     201.4     0.0      8.0    0.0    8.0    0.0      0.0      0.0   -9.90      6.4      6.3     98      1.2      0.3    25      7.6     6.6      87     19.1    0.61    100     75      0      0      0    10.5    10.5      0     0.16      1.2      0.3      0.3    25    17.7     1.214    17.6    0.214    4.273      16        0.11    0.000    0.000     201.4     71.5    0.61    71.2     249.4     133.8     130.6     103.4      93.0      60.8    0.077     0.000     0.000     0.998     0.865    0.61     0.54    2.16      0   -9.90   -9.00        9.7        9.6        9.8       10.0       10.0       20.3       22.0       22.0       22.0       22.0       22.0       22.0        1.1        0.7        0.5        0.4        0.2        0.3        0.2        0.1        0.1        0.0        0.0        0.0      0.0       7.8      24.2      29.2      34.2    362.74
    16     4  1996    86     3     200.7     0.0      0.0    0.0    0.0    0.0      0.0      0.0   -9.90      6.4      0.4      6      1.2      0.3    24      7.6     0.7       9     19.3    0.61    100     76     27      0      0    10.5    10.5      0     0.16      1.2      0.3      0.3    24    17.7     1.221    18.7    0.228    4.556      16        0.12    0.000    0.000     200.7     70.8    0.61    70.6     249.4     133.8     130.5     103.3      87.3      60.8    0.000     0.000     0.000     0.998     0.862    0.61     0.54    2.18      0   -9.90   -9.00        9.3        9.6        9.8       10.0       10.0       20.0       22.0       22.0       22.0       22.0       22.0       22.0        1.1        0.7        0.5        0.4        0.2        0.3        0.2        0.1        0.1        0.0        0.0        0.0      0.0       7.8      24.6      29.4      34.2    362.74
    17     4  1996    87     3     200.2     0.0      0.0    0.0    0.0    0.0      0.0      0.0   -9.90      5.8      0.3      5      1.1      0.3    23      6.9     0.6       8     20.2    0.61    100     77     28      0      0    10.4    10.4      0     0.16      1.1      0.3      0.3    23    17.7     1.227    19.7    0.242    4.840      16        0.13    0.000    0.000     200.2     70.3    0.61    70.0     249.4     133.8     128.5     101.8      91.9      60.8    0.000     0.000     0.000     0.998     0.858    0.61     0.54    2.20      0   -9.90   -9.00        9.0        9.6        9.8       10.0       10.0       19.7       22.0       22.0       22.0       22.0       22.0       22.0        1.0        0.7        0.5        0.4        0.2        0.3        0.2        0.1        0.1        0.1        0.0        0.0      0.0       7.1      26.4      31.8      37.3    362.74
[...]
    19     4  1996    89     3     199.1     0.0      0.0    0.0    0.0    0.0      0.0      0.0   -9.90      6.4      0.3      4      1.2      0.2    20      7.6     0.5       7     20.1    0.61    100     80     35      0      0    10.3    10.3      0     0.15      1.2      0.2      0.2    20    17.7     1.238    21.8    0.270    5.400      15        0.14    0.000    0.000     199.1     69.2    0.61    69.0     249.4     133.8     130.6     103.4      93.0      60.8    0.000     0.000     0.000     0.998     0.851    0.61     0.53    2.23      0   -9.90   -9.00        8.4        9.6        9.8       10.0       10.0       19.3       22.0       22.0       22.0       22.0       22.0       22.0        1.0        0.8        0.6        0.4        0.2        0.3        0.2        0.1        0.1        0.1        0.0        0.0      0.0       7.8      26.3      30.6      35.0    362.74
    20     4  1996    90     3     198.6     0.0      0.0    0.0    0.0    0.0      0.0      0.0   -9.90      6.6      0.3      4      1.2      0.2    18      7.8     0.5       6     19.1    0.61    100     82     37      0      0    10.2    10.2      0     0.15      1.2      0.2      0.2    18    17.7     1.243    22.8    0.284    5.676      15        0.15    0.000    0.000     198.6     68.7    0.61    68.5     249.4     133.8     131.0     103.7      93.2      60.8    0.000     0.000     0.000     0.998     0.847    0.61     0.53    2.24      0   -9.90   -9.00        8.2        9.6        9.8       10.0       10.0       19.0       22.0       22.0       22.0       22.0       22.0       22.0        0.9        0.8        0.6        0.4        0.3        0.3        0.2        0.2        0.1        0.1        0.0        0.0      0.0       8.0      24.3      28.4      32.4    362.74
    21     4  1996    91     3     198.2     0.0      0.0    0.0    0.0    0.0      0.0      0.0   -9.90      6.5      0.3      4      1.1      0.2    17      7.6     0.5       6     18.9    0.61    100     83     39      0      0    10.1    10.1      0     0.15      1.1      0.2      0.2    17    17.7     1.248    23.8    0.297    5.949      15        0.16    0.000    0.000     198.2     68.3    0.61    68.0     249.4     133.8     130.6     103.4      93.0      60.8    0.000     0.000     0.000     0.998     0.844    0.61     0.53    2.25      0   -9.90   -9.00        7.9        9.6        9.8       10.0       10.0       18.8       22.0       22.0       22.0       22.0       22.0       22.0        0.9        0.8        0.6        0.4        0.3        0.3        0.2        0.2        0.1        0.1        0.0        0.0      0.0       7.8      23.9      27.8      31.7    362.74
    22     4  1996    92     3     199.6     0.0      8.0    0.0    8.0    0.0      0.0      0.0   -9.90      6.5      6.3     97      1.2      0.2    21      7.7     6.6      85     19.2    0.61    100     79      0      0      0    10.1    10.1      0     0.15      1.2      0.2      0.2    21    17.7     1.253    24.9    0.312    6.234      14        0.16    0.000    0.000     199.6     69.7    0.61    69.5     249.4     133.8     130.8     103.6      93.1      60.8    0.077     0.000     0.000     1.075     0.917    0.61     0.57    2.31      0   -9.90   -9.00        9.6        9.6        9.8       10.0       10.0       18.6       22.0       22.0       22.0       22.0       22.0       22.0        1.2        0.7        0.6        0.4        0.3        0.3        0.2        0.2        0.1        0.1        0.0        0.0      0.0       7.9      24.5      28.1      31.7    362.74
    23     4  1996    93     3     199.0     0.0      0.0    0.0    0.0    0.0      0.0      0.0   -9.90      6.3      0.4      6      1.1      0.2    20      7.4     0.6       8     19.3    0.61    100     80     34      0      0    10.1    10.1      0     0.15      1.1      0.2      0.2    20    17.7     1.258    25.9    0.326    6.518      14        0.17    0.000    0.000     199.0     69.2    0.61    68.9     249.4     133.8     129.9     102.9      87.0      60.8    0.000     0.000     0.000     1.075     0.913    0.61     0.57    2.33      0   -9.90   -9.00        9.2        9.6        9.8       10.0       10.0       18.4       22.0       22.0       22.0       22.0       22.0       22.0        1.1        0.8        0.6        0.4        0.3        0.3        0.2        0.2        0.1        0.1        0.0        0.0      0.0       7.6      24.6      28.5      32.4    362.74
    24     4  1996    94     3     198.5     0.0      0.0    0.0    0.0    0.0      0.0      0.0   -9.90      7.3      0.4      5      1.3      0.2    17      8.5     0.6       7     19.6    0.61    100     83     40      0      0    10.0    10.0      0     0.14      1.3      0.2      0.2    17    17.7     1.262    26.9    0.340    6.794      14        0.17    0.000    0.000     198.5     68.6    0.61    68.3     249.4     133.8     133.2     105.5      94.4      60.8    0.000     0.000     0.000     1.075     0.909    0.61     0.57    2.36      0   -9.90   -9.00        8.9        9.6        9.8       10.0       10.0       18.2       22.0       22.0       22.0       22.0       22.0       22.0        1.1        0.8        0.6        0.4        0.3        0.3        0.2        0.2        0.1        0.1        0.0        0.0      0.0       8.8      25.2      29.0      32.8    362.74
    25     4  1996    95     3     198.0     0.0      0.0    0.0    0.0    0.0      0.0      0.0   -9.90      6.3      0.3      5      1.1      0.2    17      7.4     0.5       6     20.0    0.61    100     83     40      0      0    10.0    10.0      0     0.14      1.1      0.2      0.2    17    17.7     1.267    27.9    0.354    7.071      14        0.18    0.000    0.000     198.0     68.1    0.61    67.8     249.4     133.8     130.1     103.0      92.7      60.8    0.000     0.000     0.000     1.075     0.906    0.61     0.57    2.37      0   -9.90   -9.00        8.6        9.6        9.8       10.0       10.0       18.0       22.0       22.0       22.0       22.0       22.0       22.0        1.0        0.8        0.6        0.4        0.3        0.3        0.3        0.2        0.1        0.1        0.0        0.0      0.0       7.6      26.0      28.8      31.5    362.74
    26     4  1996    96     3     197.5     0.0      0.0    0.0    0.0    0.0      0.0      0.0   -9.90      6.3      0.3      4      1.1      0.2    16      7.3     0.4       6     19.6    0.61     -9     84     42      0      0     9.9     9.9      0     0.14      1.1      0.2      0.2    16    17.7     1.271    28.9    0.367    7.345      14        0.19    0.000    0.000     197.5     67.7    0.61    67.4     249.4     133.8     129.9     102.9      92.6      60.8    0.000     0.000     0.000     1.075     0.902    0.61     0.57    2.38      0   -9.90   -9.00        8.3        9.6        9.8       10.0       10.0       17.8       22.0       22.0       22.0       22.0       22.0       22.0        1.0        0.8        0.6        0.4        0.3        0.3        0.3        0.2        0.1        0.1        0.0        0.0      0.0       7.6      25.3      28.6      32.0    362.74
    27     4  1996    97     3     197.1     0.0      0.0    0.0    0.0    0.0      0.0      0.0   -9.90      6.8      0.3      4      1.1      0.2    14      8.0     0.4       6     19.8    0.61     -9     86     46      0      0     9.8     9.8      0     0.14      1.1      0.2      0.2    14    17.7     1.274    29.9    0.381    7.614      13        0.19    0.000    0.000     197.1     67.2    0.61    66.9     249.4     133.8     131.7     104.3      93.6      60.8    0.000     0.000     0.000     1.075     0.898    0.61     0.56    2.40      0   -9.90   -9.00        8.0        9.6        9.8       10.0       10.0       17.7       22.0       22.0       22.0       22.0       22.0       22.0        1.0        0.8        0.6        0.4        0.3        0.3        0.3        0.2        0.1        0.1        0.0        0.0      0.0       8.2      25.6      28.8      32.0    362.74
    28     4  1996    98     3     196.7     0.0      0.0    0.0    0.0    0.0      0.0      0.0   -9.90      7.2      0.3      4      1.2      0.2    13      8.3     0.4       5     20.1    0.61     -9     87     50      0      0     9.7     9.7      0     0.14      1.2      0.2      0.2    13    17.7     1.277    30.8    0.394    7.878      13        0.20    0.000    0.000     196.7     66.8    0.61    66.5     249.4     133.8     132.9     105.2      94.2      60.8    0.000     0.000     0.000     1.075     0.895    0.61     0.56    2.41      0   -9.90   -9.00        7.8        9.6        9.8       10.0       10.0       17.5       22.0       22.0       22.0       22.0       22.0       22.0        0.9        0.8        0.6        0.4        0.3        0.3        0.3        0.2        0.1        0.1        0.0        0.0      0.0       8.6      26.2      28.9      31.7    362.74
    29     4  1996    99     3     198.4     0.0      8.0    0.0    8.0    0.0      0.0      0.0   -9.90      6.1      6.1    100      1.0      0.2    18      7.1     6.3      89     19.2    0.61     -9     82      0      0      0     9.7     9.7      0     0.13      1.0      0.2      0.2    18    17.7     1.282    31.8    0.408    8.162      13        0.20    0.000    0.000     198.4     68.5    0.61    68.2     249.4     133.8     129.4     102.5      92.3      60.8    0.077     0.000     0.000     1.152     0.968    0.61     0.61    2.45      0   -9.90   -9.00        9.6        9.6        9.8       10.0       10.0       17.3       22.0       22.0       22.0       22.0       22.0       22.0        1.2        0.8        0.6        0.4        0.3        0.3        0.3        0.2        0.1        0.1        0.0        0.0      0.0       7.4      24.5      28.1      31.6    362.74
    30     4  1996   100     3     197.9     1.2      0.0    0.0    1.2    0.0      0.0      0.0   -9.90      5.7      1.5     26      0.8      0.1    18      6.5     1.6      25     19.4    0.61     -9     82     -9      0      0     9.6     9.6      0     0.13      0.8      0.1      0.1    18    17.7     1.286    32.8    0.422    8.448      13        0.20    0.000    0.000     197.9     68.1    0.61    67.8     249.4     133.8     126.0      99.8      84.6      60.8    0.000     0.000     0.000     1.152     0.964    0.61     0.60    2.46      0   -9.90   -9.00        9.4        9.6        9.8       10.0       10.0       17.2       22.0       22.0       22.0       22.0       22.0       22.0        1.2        0.8        0.6        0.4        0.3        0.3        0.3        0.2        0.1        0.1        0.1        0.0      1.2       6.1      24.8      28.2      31.7    362.74
     1     5  1996   101     4     197.4     0.0      0.0    0.0    0.0    0.0      0.0      0.0   -9.90      7.0      0.4      5      1.0      0.2    16      8.0     0.5       7     19.6    0.61     -9     84     -9      0      0     9.6     9.6      0     0.13      1.0      0.2      0.2    16    17.7     1.290    33.8    0.436    8.724      13        0.21    0.000    0.000     197.4     67.5    0.61    67.3     249.4     133.8     129.9     102.9      87.0      60.8    0.000     0.000     0.000     1.152     0.960    0.61     0.60    2.49      0   -9.90   -9.00        9.0        9.6        9.8       10.0       10.0       17.0       22.0       22.0       22.0       22.0       22.0       22.0        1.1        0.8        0.6        0.4        0.3        0.3        0.3        0.2        0.1        0.1        0.1        0.0      0.0       7.6      25.3      28.5      31.6    362.74
     2     5  1996   102     4     196.9     0.0      0.0    0.0    0.0    0.0      0.0      0.0   -9.90      7.4      0.4      5      1.0      0.1    14      8.4     0.5       6     19.9    0.61     -9     86     -9      0      0     9.5     9.5      0     0.13      1.0      0.1      0.1    14    17.7     1.293    34.8    0.450    8.996      13        0.22    0.000    0.000     196.9     67.0    0.61    66.8     249.4     133.8     131.1     103.8      87.7      60.8    0.000     0.000     0.000     1.152     0.956    0.61     0.60    2.51      0   -9.90   -9.00        8.6        9.6        9.8       10.0       10.0       16.9       22.0       22.0       22.0       22.0       22.0       22.0        1.1        0.8        0.6        0.4        0.3        0.3        0.3        0.2        0.1        0.1        0.1        0.0      0.0       8.0      25.7      28.8      31.9    362.74
     3     5  1996   103     4     196.4     0.0      0.0    0.0    0.0    0.0      0.0      0.0   -9.90      8.0      0.3      4      1.1      0.1    13      9.1     0.5       5     19.4    0.61     -9     87     -9      0      0     9.4     9.4      0     0.13      1.1      0.1      0.1    13    17.7     1.296    35.7    0.463    9.260      13        0.22    0.000    0.000     196.4     66.5    0.61    66.3     249.4     133.8     133.0     105.3      88.8      60.8    0.000     0.000     0.000     1.152     0.952    0.61     0.60    2.53      0   -9.90   -9.00        8.3        9.6        9.8       10.0       10.0       16.7       22.0       22.0       22.0       22.0       22.0       22.0        1.0        0.9        0.6        0.5        0.3        0.3        0.3        0.2        0.1        0.1        0.1        0.0      0.0       8.7      24.9      28.3      31.7    362.74
     4     5  1996   104     4     196.0     0.0      0.0    0.0    0.0    0.0      0.0      0.0   -9.90      8.2      0.3      4      1.1      0.1    11      9.3     0.5       5     19.6    0.61     -9     89     -9      0      0     9.3     9.3      0     0.12      1.1      0.1      0.1    11    17.7     1.298    36.7    0.476    9.520      12        0.23    0.000    0.000     196.0     66.1    0.61    65.8     249.4     133.8     133.3     105.6      89.1      60.8    0.000     0.000     0.000     1.152     0.949    0.61     0.59    2.55      0   -9.90   -9.00        8.0        9.6        9.8       10.0       10.0       16.6       22.0       22.0       22.0       22.0       22.0       22.0        1.0        0.9        0.6        0.5        0.3        0.3        0.3        0.2        0.1        0.1        0.1        0.0      0.0       8.8      25.1      28.8      32.4    362.74
     5     5  1996   105     4     195.5     0.0      0.0    0.0    0.0    0.0      0.0      0.0   -9.90      8.7      0.3      4      1.2      0.1    10      9.9     0.4       4     19.6    0.61     -9     90     -9      0      0     9.3     9.3      0     0.12      1.2      0.1      0.1    10    17.7     1.300    37.6    0.489    9.774      12        0.23    0.000    0.000     195.5     65.7    0.61    65.4     249.4     133.8     133.8     106.9      90.1      60.8    0.000     0.000     0.000     1.152     0.945    0.61     0.59    2.57      0   -9.90   -9.00        7.6        9.6        9.8       10.0       10.0       16.5       22.0       22.0       22.0       22.0       22.0       22.0        1.0        0.9        0.6        0.5        0.3        0.3        0.3        0.2        0.1        0.1        0.1        0.0      0.0       9.4      25.3      28.6      32.0    362.74
     6     5  1996    -9     0     195.3     0.0      0.0    0.0    0.0    0.0      0.0      0.0   -9.90      8.2      0.3      3      0.0      0.0   100      8.2     0.3       3     19.8    0.61     -9     -9     -9      0     -9     0.0     0.0      0    -9.00      0.0      0.0      0.0   100    17.7     1.300    38.6    0.502   10.047      12        0.24    0.000    0.000     195.3     65.4    0.61    65.1     249.4     133.8     133.8     103.9      90.1      60.8    0.000     0.000     0.000     1.152     0.941    0.61     0.59    2.58      0   -9.90   -9.00        7.3        9.6        9.8       10.0       10.0       16.5       22.0       22.0       22.0       22.0       22.0       22.0        0.9        0.9        0.7        0.5        0.3        0.3        0.3        0.2        0.1        0.1        0.1        0.0      0.0       8.1      25.5      27.8      30.1    362.74
     7     5  1996    -9     0     194.9     0.0      0.0    0.0    0.0    0.0      0.0      0.0   -9.90     11.0      0.4      3      0.0      0.0   100     11.0     0.4       3     20.9    0.61     -9     -9     -9      0     -9     0.0     0.0      0    -9.00      0.0      0.0      0.0   100    17.7     1.300    39.0    0.507   10.149      12        0.24    0.000    0.000     194.9     65.0    0.61    64.7     249.4     133.8     133.8     108.2      90.1      60.8    0.000     0.000     0.000     1.152     0.937    0.61     0.59    2.60      0   -9.90   -9.00        7.0        9.6        9.8       10.0       10.0       16.5       22.0       22.0       22.0       22.0       22.0       22.0        0.9        0.9        0.7        0.5        0.3        0.3        0.3        0.2        0.1        0.1        0.1        0.0      0.0      10.0      27.7      30.0      32.4    362.74
     8     5  1996    -9     0     194.5     0.0      0.0    0.0    0.0    0.0      0.0      0.0   -9.90     11.8      0.4      3      0.0      0.0   100     11.8     0.4       3     20.9    0.61     -9     -9     -9      0     -9     0.0     0.0      0    -9.00      0.0      0.0      0.0   100    17.7     1.300    39.0    0.507   10.149      12        0.24    0.000    0.000     194.5     64.7    0.61    64.4     249.4     133.8     133.8     109.7      90.1      60.8    0.000     0.000     0.000     1.152     0.933    0.61     0.58    2.63      0   -9.90   -9.00        6.6        9.6        9.8       10.0       10.0       16.5       22.0       22.0       22.0       22.0       22.0       22.0        0.9        0.9        0.7        0.5        0.3        0.3        0.3        0.2        0.1        0.1        0.1        0.1      0.0      10.7      27.8      30.5      33.1    362.74
     9     5  1996    -9     0     194.2     0.0      0.0    0.0    0.0    0.0      0.0      0.0   -9.90     10.4      0.3      3      0.0      0.0   100     10.4     0.3       3     20.7    0.61     -9     -9     -9      0     -9     0.0     0.0      0    -9.00      0.0      0.0      0.0   100    17.7     1.300    39.0    0.507   10.149      12        0.24    0.000    0.000     194.2     64.4    0.61    64.1     249.4     133.8     133.8     106.9      90.1      60.8    0.000     0.000     0.000     1.152     0.930    0.61     0.58    2.64      0   -9.90   -9.00        6.3        9.6        9.8       10.0       10.0       16.5       22.0       22.0       22.0       22.0       22.0       22.0        0.8        0.9        0.7        0.5        0.3        0.3        0.3        0.2        0.1        0.1        0.1        0.1      0.0       9.4      27.4      30.8      34.1    362.74
    10     5  1996    -9     0     194.0     0.0      0.0    0.0    0.0    0.0      0.0      0.0   -9.90     10.9      0.3      3      0.0      0.0   100     10.9     0.3       3     20.2    0.61     -9     -9     -9      0     -9     0.0     0.0      0    -9.00      0.0      0.0      0.0   100    17.7     1.300    39.0    0.507   10.149      12        0.24    0.000    0.000     194.0     64.1    0.61    63.8     249.4     133.8     133.8     107.9      90.1      60.8    0.000     0.000     0.000     1.152     0.926    0.61     0.58    2.66      0   -9.90   -9.00        6.1        9.6        9.8       10.0       10.0       16.5       22.0       22.0       22.0       22.0       22.0       22.0        0.8        0.9        0.7        0.5        0.3        0.3        0.3        0.2        0.1        0.1        0.1        0.1      0.0       9.9      26.4      30.5      34.6    362.74
