AquaCrop 7.2 (August 2024) - Output created on (date) : 04-12-2024   at (time) : 03:40:10 PM
Irrigation events and intervals during the growing period

** Run number:  1
   Day Month  Year   DAP Stage    Irri  IrrInt
                                    mm    days
     1     1  1976     1    -9     0.0    -9
     2     1  1976     2    -9     0.0    -9
     3     1  1976     3    -9     0.0    -9
     4     1  1976     4    -9     0.0    -9
     5     1  1976     5    -9     0.0    -9
     6     1  1976     6    -9     0.0    -9
     7     1  1976     7    -9     0.0    -9
     8     1  1976     8    -9     0.0    -9
     9     1  1976     9    -9     0.0    -9
    10     1  1976    10    -9     0.0    -9
    11     1  1976    11    -9     0.0    -9
    12     1  1976    12    -9     0.0    -9
    13     1  1976    13    -9     0.0    -9
    14     1  1976    14    -9     0.0    -9
    15     1  1976    15    -9     0.0    -9
    16     1  1976    16    -9     0.0    -9
    17     1  1976    17    -9     0.0    -9
    18     1  1976    18    -9     0.0    -9
    19     1  1976    19    -9     0.0    -9
    20     1  1976    20    -9     0.0    -9
    21     1  1976    21    -9     0.0    -9
    22     1  1976    22    -9     0.0    -9
    23     1  1976    23    -9     0.0    -9
    24     1  1976    24    -9     0.0    -9
    25     1  1976    25    -9     0.0    -9
    26     1  1976    26    -9     0.0    -9
    27     1  1976    27    -9     0.0    -9
    28     1  1976    28    -9     0.0    -9
    29     1  1976    29    -9     0.0    -9
    30     1  1976    30    -9     0.0    -9
    31     1  1976    31    -9     0.0    -9
     1     2  1976    32    -9     0.0    -9
     2     2  1976    33    -9     0.0    -9
     3     2  1976    34    -9     0.0    -9
     4     2  1976    35    -9     0.0    -9
     5     2  1976    36    -9     0.0    -9
     6     2  1976    37    -9     0.0    -9
     7     2  1976    38    -9     0.0    -9
     8     2  1976    39    -9     0.0    -9
     9     2  1976    40    -9     0.0    -9
    10     2  1976    41    -9     0.0    -9
    11     2  1976    42    -9     0.0    -9
    12     2  1976    43    -9     0.0    -9
    13     2  1976    44    -9     0.0    -9
    14     2  1976    45    -9     0.0    -9
    15     2  1976    46    -9     0.0    -9
    16     2  1976    47    -9     0.0    -9
    17     2  1976    48    -9     0.0    -9
    18     2  1976    49    -9     0.0    -9
    19     2  1976    50    -9     0.0    -9
    20     2  1976    51    -9     0.0    -9
    21     2  1976    52    -9     0.0    -9
    22     2  1976    53    -9     0.0    -9
    23     2  1976    54    -9     0.0    -9
    24     2  1976    55    -9     0.0    -9
    25     2  1976    56    -9     0.0    -9
    26     2  1976    57    -9     0.0    -9
    27     2  1976    58    -9     0.0    -9
    28     2  1976    59    -9     0.0    -9
    29     2  1976    60    -9     0.0    -9
     1     3  1976    61    -9     0.0    -9
     2     3  1976    62    -9     0.0    -9
     3     3  1976    63    -9     0.0    -9
     4     3  1976    64    -9     0.0    -9
     5     3  1976    65    -9     0.0    -9
     6     3  1976    66    -9     0.0    -9
     7     3  1976    67    -9     0.0    -9
     8     3  1976    68    -9     0.0    -9
     9     3  1976    69    -9     0.0    -9
    10     3  1976    70    -9     0.0    -9
    11     3  1976    71    -9     0.0    -9
    12     3  1976    72    -9     0.0    -9
    13     3  1976    73    -9     0.0    -9
    14     3  1976    74    -9     0.0    -9
    15     3  1976    75    -9     0.0    -9
    16     3  1976    76    -9     0.0    -9
    17     3  1976    77    -9     0.0    -9
    18     3  1976    78    -9     0.0    -9
    19     3  1976    79    -9     0.0    -9
    20     3  1976    80    -9     0.0    -9
    21     3  1976    81    -9     0.0    -9
    22     3  1976    82    -9     0.0    -9
    23     3  1976    83    -9     0.0    -9
    24     3  1976    84    -9     0.0    -9
    25     3  1976    85    -9     0.0    -9
    26     3  1976    86    -9     0.0    -9
    27     3  1976    87    -9     0.0    -9
    28     3  1976    88    -9     0.0    -9
    29     3  1976    89    -9     0.0    -9
    30     3  1976    90    -9     0.0    -9
    31     3  1976    91    -9     0.0    -9
     1     4  1976    92    -9     0.0    -9
     2     4  1976    93    -9     0.0    -9
     3     4  1976    94    -9     0.0    -9
     4     4  1976    95    -9     0.0    -9
     5     4  1976    96    -9     0.0    -9
     6     4  1976    97    -9     0.0    -9
     7     4  1976    98    -9     0.0    -9
     8     4  1976    99    -9     0.0    -9
     9     4  1976   100    -9     0.0    -9
    10     4  1976   101    -9     0.0    -9
    11     4  1976   102    -9     0.0    -9
    12     4  1976   103    -9     0.0    -9
    13     4  1976   104    -9     0.0    -9
    14     4  1976   105    -9     0.0    -9
    15     4  1976   106    -9     0.0    -9
    16     4  1976   107    -9     0.0    -9
    17     4  1976   108    -9     0.0    -9
    18     4  1976   109    -9     0.0    -9
    19     4  1976   110    -9     0.0    -9
    20     4  1976   111    -9     0.0    -9
    21     4  1976   112    -9     0.0    -9
    22     4  1976   113    -9     0.0    -9
    23     4  1976   114    -9     0.0    -9
    24     4  1976   115    -9     0.0    -9
    25     4  1976   116    -9     0.0    -9
    26     4  1976   117    -9     0.0    -9
    27     4  1976   118    -9     0.0    -9
    28     4  1976   119    -9     0.0    -9
    29     4  1976   120    -9     0.0    -9
    30     4  1976   121    -9     0.0    -9
     1     5  1976   122    -9     0.0    -9
     2     5  1976   123    -9     0.0    -9
     3     5  1976   124    -9     0.0    -9
     4     5  1976   125    -9     0.0    -9
     5     5  1976   126    -9     0.0    -9
     6     5  1976   127    -9     0.0    -9
     7     5  1976   128    -9     0.0    -9
     8     5  1976   129    -9     0.0    -9
     9     5  1976   130    -9    -9.0    -9

Legend

DAP          : Days after planting
Stage        : Stage: not recorded
Irri         : Amount of water applied by irrigation during growing period
IrrInt       : Irrigation interval during growing period
