AquaCrop 7.2 (August 2024) - Output created on (date) : 04-12-2024   at (time) : 03:40:10 PM
Soil Water balance

** Run number:  1
   Day Month  Year   DAP Stage     WCTot    Rain     Irri   Surf   Infilt   RO    Drain       CR    Zgwt       Ex       E     E/Ex    Trx       Tr  Tr/Trx    ETx      ET   ET/ETx
                                      mm      mm       mm     mm     mm     mm       mm       mm      m        mm       mm     %       mm       mm    %        mm      mm      %
     1     1  1976     1    1      664.9     5.3      0.0    0.0    5.2    0.1      0.0      0.0   -9.90      0.3      0.3   100      0.0      0.0   100      0.3     0.3    100
     2     1  1976     2    1      666.1     2.7      0.0    0.0    2.7    0.0      0.9      0.0   -9.90      0.6      0.6   100      0.0      0.0   100      0.6     0.6    100
     3     1  1976     3    1      663.2     0.2      0.0    0.0    0.2    0.0      2.1      0.0   -9.90      1.0      1.0    98      0.0      0.0   100      1.0     1.0     98
     4     1  1976     4    1      663.4     2.6      0.0    0.0    2.6    0.0      1.9      0.0   -9.90      0.6      0.6   100      0.0      0.0   100      0.6     0.6    100
     5     1  1976     5    1      665.3     3.4      0.0    0.0    3.4    0.0      1.3      0.0   -9.90      0.2      0.2   100      0.0      0.0   100      0.2     0.2    100
     6     1  1976     6    1      663.5     0.2      0.0    0.0    0.2    0.0      1.6      0.0   -9.90      0.4      0.4    99      0.0      0.0   100      0.4     0.4     99
     7     1  1976     7    1      661.4     0.1      0.0    0.0    0.1    0.0      1.7      0.0   -9.90      0.4      0.4    99      0.0      0.0   100      0.4     0.4     99
     8     1  1976     8    1      660.0     0.0      0.0    0.0    0.0    0.0      1.1      0.0   -9.90      0.4      0.4    94      0.0      0.0   100      0.4     0.4     94
     9     1  1976     9    1      661.9     2.8      0.0    0.0    2.8    0.0      0.4      0.0   -9.90      0.4      0.4   100      0.0      0.0   100      0.4     0.4    100
    10     1  1976    10    2      666.9     5.8      0.0    0.0    5.6    0.2      0.4      0.0   -9.90      0.2      0.2   100      0.0      0.0   100      0.2     0.2    100
    11     1  1976    11    2      665.1     0.3      0.0    0.0    0.3    0.0      1.6      0.0   -9.90      0.4      0.4   100      0.0      0.0   100      0.4     0.4    100
    12     1  1976    12    2      663.5     1.2      0.0    0.0    1.2    0.0      2.3      0.0   -9.90      0.5      0.5   100      0.0      0.0   100      0.5     0.5    100
    13     1  1976    13    2      663.0     1.5      0.0    0.0    1.5    0.0      1.7      0.0   -9.90      0.2      0.2   100      0.0      0.0   100      0.2     0.2    100
    14     1  1976    14    2      662.1     0.7      0.0    0.0    0.7    0.0      1.2      0.0   -9.90      0.4      0.4   100      0.0      0.0   100      0.4     0.4    100
    15     1  1976    15    2      660.8     0.1      0.0    0.0    0.1    0.0      1.0      0.0   -9.90      0.4      0.4    99      0.0      0.0   100      0.4     0.4     99
    16     1  1976    16    2      660.8     1.1      0.0    0.0    1.1    0.0      0.6      0.0   -9.90      0.4      0.4   100      0.0      0.0   100      0.4     0.4    100
    17     1  1976    17    2      660.0     0.0      0.0    0.0    0.0    0.0      0.3      0.0   -9.90      0.5      0.5   100      0.0      0.0   100      0.5     0.5    100
    18     1  1976    18    2      660.8     1.3      0.0    0.0    1.3    0.0      0.2      0.0   -9.90      0.3      0.3   100      0.0      0.0   100      0.3     0.3    100
    19     1  1976    19    2      662.4     2.2      0.0    0.0    2.2    0.0      0.2      0.0   -9.90      0.3      0.3   100      0.0      0.0   100      0.3     0.3    100
    20     1  1976    20    2      666.0     4.6      0.0    0.0    4.5    0.1      0.6      0.0   -9.90      0.4      0.4   100      0.0      0.0   100      0.4     0.4    100
    21     1  1976    21    2      666.6     2.9      0.0    0.0    2.9    0.0      1.6      0.0   -9.90      0.8      0.8   100      0.0      0.0   100      0.8     0.8    100
    22     1  1976    22    2      664.7     1.0      0.0    0.0    1.0    0.0      2.4      0.0   -9.90      0.5      0.5   100      0.0      0.0   100      0.5     0.5    100
    23     1  1976    23    2      664.5     2.8      0.0    0.0    2.8    0.0      2.3      0.0   -9.90      0.7      0.7   100      0.0      0.0   100      0.7     0.7    100
    24     1  1976    24    2      667.2     4.8      0.0    0.0    4.7    0.1      1.8      0.0   -9.90      0.2      0.2   100      0.0      0.0   100      0.2     0.2    100
    25     1  1976    25    2      669.1     4.2      0.0    0.0    4.2    0.0      2.1      0.0   -9.90      0.2      0.2   100      0.0      0.0   100      0.2     0.2    100
    26     1  1976    26    2      675.2    10.2      0.0    0.0    9.3    0.9      3.0      0.0   -9.90      0.2      0.2   100      0.0      0.0   100      0.2     0.2    100
    27     1  1976    27    2      670.2     0.3      0.0    0.0    0.3    0.0      5.0      0.0   -9.90      0.3      0.3   100      0.0      0.0   100      0.3     0.3    100
    28     1  1976    28    2      665.1     0.0      0.0    0.0    0.0    0.0      4.9      0.0   -9.90      0.2      0.2    98      0.0      0.0   100      0.2     0.2     98
    29     1  1976    29    2      661.5     0.0      0.0    0.0    0.0    0.0      3.0      0.0   -9.90      0.6      0.5    91      0.0      0.0   100      0.6     0.5     91
    30     1  1976    30    2      660.0     0.0      0.0    0.0    0.0    0.0      1.3      0.0   -9.90      0.3      0.2    87      0.0      0.0   100      0.3     0.2     87
    31     1  1976    31    2      659.2     0.0      0.0    0.0    0.0    0.0      0.4      0.0   -9.90      0.4      0.3    85      0.0      0.0   100      0.4     0.3     85
     1     2  1976    32    2      658.8     0.0      0.0    0.0    0.0    0.0      0.1      0.0   -9.90      0.3      0.2    82      0.0      0.0   100      0.3     0.2     82
     2     2  1976    33    2      658.6     0.0      0.0    0.0    0.0    0.0      0.0      0.0   -9.90      0.2      0.2    81      0.0      0.0   100      0.2     0.2     81
     3     2  1976    34    2      658.4     0.0      0.0    0.0    0.0    0.0      0.0      0.0   -9.90      0.3      0.2    80      0.0      0.0   100      0.3     0.2     80
     4     2  1976    35    2      658.2     0.0      0.0    0.0    0.0    0.0      0.0      0.0   -9.90      0.2      0.1    78      0.0      0.0   100      0.2     0.1     78
     5     2  1976    36    2      658.0     0.0      0.0    0.0    0.0    0.0      0.0      0.0   -9.90      0.3      0.2    77      0.0      0.0   100      0.3     0.2     77
     6     2  1976    37    2      657.7     0.0      0.0    0.0    0.0    0.0      0.0      0.0   -9.90      0.5      0.4    75      0.0      0.0   100      0.5     0.4     75
     7     2  1976    38    2      657.4     0.0      0.0    0.0    0.0    0.0      0.0      0.0   -9.90      0.4      0.3    73      0.0      0.0   100      0.4     0.3     73
     8     2  1976    39    2      657.4     0.3      0.0    0.0    0.3    0.0      0.0      0.0   -9.90      0.3      0.3   100      0.0      0.0   100      0.3     0.3    100
     9     2  1976    40    2      659.4     2.3      0.0    0.0    2.3    0.0      0.0      0.0   -9.90      0.3      0.3   100      0.0      0.0   100      0.3     0.3    100
    10     2  1976    41    2      662.4     3.2      0.0    0.0    3.2    0.0      0.0      0.0   -9.90      0.2      0.2   100      0.0      0.0   100      0.2     0.2    100
    11     2  1976    42    2      664.2     2.7      0.0    0.0    2.7    0.0      0.4      0.0   -9.90      0.5      0.5   100      0.0      0.0   100      0.5     0.5    100
    12     2  1976    43    2      676.4    16.4      0.0    0.0   13.7    2.7      1.1      0.0   -9.90      0.4      0.4   100      0.0      0.0   100      0.4     0.4    100
    13     2  1976    44    2      677.1     5.7      0.0    0.0    5.6    0.1      4.7      0.0   -9.90      0.2      0.2   100      0.0      0.0   100      0.2     0.2    100
    14     2  1976    45    2      669.7     0.0      0.0    0.0    0.0    0.0      6.8      0.0   -9.90      0.7      0.7   100      0.0      0.0   100      0.7     0.7    100
    15     2  1976    46    2      663.8     0.0      0.0    0.0    0.0    0.0      5.2      0.0   -9.90      0.7      0.7   100      0.0      0.0   100      0.7     0.7    100
    16     2  1976    47    2      660.8     0.1      0.0    0.0    0.1    0.0      2.7      0.0   -9.90      0.5      0.5    99      0.0      0.0   100      0.5     0.5     99
    17     2  1976    48    2      659.6     0.1      0.0    0.0    0.1    0.0      1.0      0.0   -9.90      0.3      0.3    99      0.0      0.0   100      0.3     0.3     99
    18     2  1976    49    2      658.4     0.0      0.0    0.0    0.0    0.0      0.3      0.0   -9.90      0.9      0.8    94      0.0      0.0   100      0.9     0.8     94
    19     2  1976    50    2      657.5     0.2      0.0    0.0    0.2    0.0      0.1      0.0   -9.90      1.1      1.0    96      0.0      0.0   100      1.1     1.0     96
    20     2  1976    51    2      656.5     0.0      0.0    0.0    0.0    0.0      0.0      0.0   -9.90      1.0      0.9    88      0.1      0.1   100      1.1     1.0     88
    21     2  1976    52    2      655.7     0.0      0.0    0.0    0.0    0.0      0.0      0.0   -9.90      0.9      0.7    80      0.1      0.1   100      1.0     0.8     82
    22     2  1976    53    2      654.8     0.0      0.0    0.0    0.0    0.0      0.0      0.0   -9.90      1.1      0.8    74      0.1      0.1   100      1.2     0.9     76
    23     2  1976    54    2      654.1     0.0      0.0    0.0    0.0    0.0      0.0      0.0   -9.90      0.8      0.5    68      0.1      0.1   100      0.9     0.6     71
    24     2  1976    55    2      654.5     0.7      0.0    0.0    0.7    0.0      0.0      0.0   -9.90      0.3      0.3   100      0.0      0.0   100      0.4     0.4    100
    25     2  1976    56    2      653.9     0.0      0.0    0.0    0.0    0.0      0.0      0.0   -9.90      0.5      0.5   100      0.0      0.0   100      0.5     0.5    100
    26     2  1976    57    2      653.3     0.0      0.0    0.0    0.0    0.0      0.0      0.0   -9.90      0.6      0.6    94      0.0      0.0   100      0.7     0.7     94
    27     2  1976    58    2      652.7     0.0      0.0    0.0    0.0    0.0      0.0      0.0   -9.90      0.6      0.5    88      0.0      0.0   100      0.6     0.6     88
    28     2  1976    59    2      651.9     0.0      0.0    0.0    0.0    0.0      0.0      0.0   -9.90      0.9      0.7    82      0.1      0.1   100      1.0     0.8     84
    29     2  1976    60    2      654.2     3.4      0.0    0.0    3.4    0.0      0.0      0.0   -9.90      0.9      0.9   100      0.2      0.2   100      1.1     1.1    100
     1     3  1976    61    2      653.7     0.2      0.0    0.0    0.2    0.0      0.0      0.0   -9.90      0.7      0.7    98      0.0      0.0   100      0.8     0.7     98
     2     3  1976    62    2      653.0     0.0      0.0    0.0    0.0    0.0      0.0      0.0   -9.90      0.7      0.6    91      0.0      0.0   100      0.7     0.6     91
     3     3  1976    63    2      652.2     0.0      0.0    0.0    0.0    0.0      0.0      0.0   -9.90      1.0      0.8    84      0.0      0.0   100      1.0     0.8     84
     4     3  1976    64    2      651.3     0.0      0.0    0.0    0.0    0.0      0.0      0.0   -9.90      1.1      0.9    76      0.0      0.0   100      1.2     0.9     77
     5     3  1976    65    2      650.7     0.0      0.0    0.0    0.0    0.0      0.0      0.0   -9.90      0.8      0.5    70      0.0      0.0   100      0.8     0.5     70
     6     3  1976    66    2      650.3     0.0      0.0    0.0    0.0    0.0      0.0      0.0   -9.90      0.6      0.4    67      0.0      0.0   100      0.6     0.4     67
     7     3  1976    67    2      650.0     0.0      0.0    0.0    0.0    0.0      0.0      0.0   -9.90      0.5      0.3    64      0.0      0.0   100      0.5     0.3     64
     8     3  1976    68    2      649.7     0.0      0.0    0.0    0.0    0.0      0.0      0.0   -9.90      0.4      0.3    62      0.0      0.0   100      0.4     0.3     62
     9     3  1976    69    2      649.5     0.0      0.0    0.0    0.0    0.0      0.0      0.0   -9.90      0.4      0.2    60      0.0      0.0   100      0.4     0.2     60
    10     3  1976    70    2      649.2     0.0      0.0    0.0    0.0    0.0      0.0      0.0   -9.90      0.6      0.3    58      0.0      0.0   100      0.6     0.3     58
    11     3  1976    71    2      648.6     0.0      0.0    0.0    0.0    0.0      0.0      0.0   -9.90      1.0      0.6    56      0.0      0.0   100      1.0     0.6     56
    12     3  1976    72    3      654.4     6.5      0.0    0.0    6.5    0.0      0.0      0.0   -9.90      0.8      0.8   100      0.0      0.0   100      0.8     0.8    100
    13     3  1976    73    3      654.5     0.8      0.0    0.0    0.8    0.0      0.0      0.0   -9.90      0.6      0.6   100      0.0      0.0   100      0.6     0.6    100
    14     3  1976    74    3      655.0     1.1      0.0    0.0    1.1    0.0      0.0      0.0   -9.90      0.6      0.6   100      0.1      0.1   100      0.6     0.6    100
    15     3  1976    75    3      655.0     0.4      0.0    0.0    0.4    0.0      0.0      0.0   -9.90      0.4      0.4   100      0.0      0.0   100      0.4     0.4    100
    16     3  1976    76    3      654.6     0.1      0.0    0.0    0.1    0.0      0.0      0.0   -9.90      0.5      0.5    98      0.1      0.1   100      0.5     0.5     99
    17     3  1976    77    3      658.4     4.4      0.0    0.0    4.4    0.0      0.0      0.0   -9.90      0.4      0.4   100      0.1      0.1   100      0.6     0.6    100
    18     3  1976    78    3      658.1     0.1      0.0    0.0    0.1    0.0      0.0      0.0   -9.90      0.3      0.3    99      0.1      0.1   100      0.4     0.4    100
    19     3  1976    79    3      657.7     0.0      0.0    0.0    0.0    0.0      0.0      0.0   -9.90      0.3      0.3    96      0.0      0.0   100      0.3     0.3     96
    20     3  1976    80    3      657.2     0.0      0.0    0.0    0.0    0.0      0.0      0.0   -9.90      0.6      0.6    91      0.0      0.0   100      0.6     0.6     91
    21     3  1976    81    3      656.6     0.0      0.0    0.0    0.0    0.0      0.0      0.0   -9.90      0.7      0.6    86      0.0      0.0   100      0.7     0.6     86
    22     3  1976    82    3      656.1     0.0      0.0    0.0    0.0    0.0      0.0      0.0   -9.90      0.6      0.5    82      0.0      0.0   100      0.6     0.5     82
    23     3  1976    83    3      655.7     0.0      0.0    0.0    0.0    0.0      0.0      0.0   -9.90      0.6      0.5    78      0.0      0.0   100      0.6     0.5     78
    24     3  1976    84    3      659.7     4.6      0.0    0.0    4.6    0.0      0.0      0.0   -9.90      0.6      0.6   100      0.0      0.0   100      0.6     0.6    100
    25     3  1976    85    3      660.3     0.8      0.0    0.0    0.8    0.0      0.0      0.0   -9.90      0.2      0.2   100      0.0      0.0   100      0.2     0.2    100
    26     3  1976    86    3      668.3     9.0      0.0    0.0    8.4    0.6      0.0      0.0   -9.90      0.2      0.2   100      0.1      0.1   100      0.3     0.3    100
    27     3  1976    87    3      666.7     0.4      0.0    0.0    0.4    0.0      1.7      0.0   -9.90      0.3      0.3   100      0.0      0.0   100      0.3     0.3    100
    28     3  1976    88    3      663.4     0.0      0.0    0.0    0.0    0.0      2.9      0.0   -9.90      0.4      0.4    98      0.1      0.1   100      0.5     0.5     99
    29     3  1976    89    3      660.6     0.1      0.0    0.0    0.1    0.0      2.0      0.0   -9.90      0.6      0.6    97      0.2      0.2   100      0.9     0.8     98
    30     3  1976    90    3      658.8     0.0      0.0    0.0    0.0    0.0      0.9      0.0   -9.90      0.6      0.5    89      0.4      0.4   100      1.0     0.9     94
    31     3  1976    91    3      657.7     0.0      0.0    0.0    0.0    0.0      0.3      0.0   -9.90      0.5      0.4    82      0.3      0.3   100      0.8     0.8     89
     1     4  1976    92    3      655.6     0.0      0.0    0.0    0.0    0.0      0.1      0.0   -9.90      0.8      0.6    76      1.4      1.4   100      2.2     2.0     91
     2     4  1976    93    3      658.2     3.4      0.0    0.0    3.4    0.0      0.0      0.0   -9.90      0.5      0.5   100      0.3      0.3   100      0.8     0.8    100
     3     4  1976    94    3      657.5     0.1      0.0    0.0    0.1    0.0      0.0      0.0   -9.90      0.7      0.7    98      0.1      0.1   100      0.8     0.8     98
     4     4  1976    95    3      657.3     0.3      0.0    0.0    0.3    0.0      0.0      0.0   -9.90      0.5      0.5    99      0.0      0.0   100      0.5     0.5     99
     5     4  1976    96    3      656.3     0.0      0.0    0.0    0.0    0.0      0.0      0.0   -9.90      0.8      0.7    94      0.3      0.3   100      1.1     1.0     95
     6     4  1976    97    3      655.8     0.0      0.0    0.0    0.0    0.0      0.0      0.0   -9.90      0.4      0.3    86      0.2      0.2   100      0.5     0.5     91
     7     4  1976    98    3      656.0     0.8      0.0    0.0    0.8    0.0      0.0      0.0   -9.90      0.5      0.5   100      0.1      0.1   100      0.6     0.6    100
     8     4  1976    99    3      655.3     0.0      0.0    0.0    0.0    0.0      0.0      0.0   -9.90      0.6      0.6    99      0.0      0.0   100      0.7     0.7     99
     9     4  1976   100    3      654.6     0.0      0.0    0.0    0.0    0.0      0.0      0.0   -9.90      0.8      0.7    92      0.0      0.0   100      0.8     0.7     92
    10     4  1976   101    4      653.6     0.0      0.0    0.0    0.0    0.0      0.0      0.0   -9.90      1.0      0.8    85      0.2      0.2   100      1.2     1.0     87
    11     4  1976   102    4      651.6     0.0      0.0    0.0    0.0    0.0      0.0      0.0   -9.90      1.2      0.9    76      1.1      1.1   100      2.3     2.0     87
    12     4  1976   103    4      649.9     0.0      0.0    0.0    0.0    0.0      0.0      0.0   -9.90      1.1      0.7    62      1.0      1.0   100      2.1     1.7     81
    13     4  1976   104    4      653.3     5.2      0.0    0.0    5.2    0.0      0.0      0.0   -9.90      1.0      1.0   100      0.9      0.9   100      1.8     1.8    100
    14     4  1976   105    4      653.0     0.2      0.0    0.0    0.2    0.0      0.0      0.0   -9.90      0.4      0.4   100      0.1      0.1   100      0.5     0.5    100
    15     4  1976   106    4      650.9     0.1      0.0    0.0    0.1    0.0      0.0      0.0   -9.90      0.9      0.9    97      1.3      1.3   100      2.3     2.2     99
    16     4  1976   107    4      650.1     0.0      0.0    0.0    0.0    0.0      0.0      0.0   -9.90      0.5      0.4    78      0.4      0.4   100      0.9     0.8     87
    17     4  1976   108    4      648.8     0.0      0.0    0.0    0.0    0.0      0.0      0.0   -9.90      0.8      0.6    70      0.7      0.7   100      1.5     1.3     85
    18     4  1976   109    4      646.2     0.0      0.0    0.0    0.0    0.0      0.0      0.0   -9.90      1.1      0.7    60      1.9      1.9   100      3.0     2.5     85
    19     4  1976   110    4      643.3     0.0      0.0    0.0    0.0    0.0      0.0      0.0   -9.90      1.3      0.6    45      2.3      2.3   100      3.6     2.9     80
    20     4  1976   111    4      640.4     0.0      0.0    0.0    0.0    0.0      0.0      0.0   -9.90      1.4      0.5    32      2.5      2.5   100      3.9     3.0     76
    21     4  1976   112    4      640.1     0.0      0.0    0.0    0.0    0.0      0.0      0.0   -9.90      0.6      0.1    23      0.2      0.2   100      0.7     0.3     40
    22     4  1976   113    4      639.6     0.0      0.0    0.0    0.0    0.0      0.0      0.0   -9.90      1.0      0.2    22      0.2      0.2   100      1.3     0.5     36
    23     4  1976   114    4      639.4     0.0      0.0    0.0    0.0    0.0      0.0      0.0   -9.90      0.8      0.2    21      0.0      0.0   100      0.8     0.2     21
    24     4  1976   115    4      639.3     0.0      0.0    0.0    0.0    0.0      0.0      0.0   -9.90      0.7      0.1    20      0.0      0.0   100      0.7     0.1     21
    25     4  1976   116    4      638.9     0.0      0.0    0.0    0.0    0.0      0.0      0.0   -9.90      0.8      0.2    20      0.2      0.2   100      1.1     0.4     38
    26     4  1976   117    4      637.6     0.0      0.0    0.0    0.0    0.0      0.0      0.0   -9.90      1.2      0.2    19      1.0      1.0   100      2.2     1.2     55
    27     4  1976   118    4      637.4     0.0      0.0    0.0    0.0    0.0      0.0      0.0   -9.90      0.7      0.1    16      0.1      0.1   100      0.8     0.2     28
    28     4  1976   119    4      637.3     0.0      0.0    0.0    0.0    0.0      0.0      0.0   -9.90      0.9      0.1    16      0.0      0.0   100      0.9     0.1     16
    29     4  1976   120    4      637.1     0.0      0.0    0.0    0.0    0.0      0.0      0.0   -9.90      1.0      0.2    16      0.0      0.0   100      1.0     0.2     16
    30     4  1976   121    4      636.9     0.0      0.0    0.0    0.0    0.0      0.0      0.0   -9.90      0.9      0.1    15      0.1      0.1   100      1.0     0.2     23
     1     5  1976   122    4      636.2     0.0      0.0    0.0    0.0    0.0      0.0      0.0   -9.90      1.1      0.2    15      0.5      0.5   100      1.6     0.7     43
     2     5  1976   123    4      637.3     2.3      0.0    0.0    2.3    0.0      0.0      0.0   -9.90      0.7      0.7   100      0.5      0.5   100      1.2     1.2    100
     3     5  1976   124    4      638.3     1.9      0.0    0.0    1.9    0.0      0.0      0.0   -9.90      0.4      0.4   100      0.4      0.4   100      0.8     0.8    100
     4     5  1976   125    4      636.4     0.0      0.0    0.0    0.0    0.0      0.0      0.0   -9.90      0.9      0.9   100      1.0      1.0   100      1.9     1.9    100
     5     5  1976   126    4      633.5     0.0      0.0    0.0    0.0    0.0      0.0      0.0   -9.90      1.4      0.7    50      2.2      2.2   100      3.6     2.9     81
     6     5  1976   127    4      630.1     0.0      0.0    0.0    0.0    0.0      0.0      0.0   -9.90      1.9      0.3    15      3.1      3.1   100      5.0     3.4     67
     7     5  1976   128    4      626.5     0.0      0.0    0.0    0.0    0.0      0.0      0.0   -9.90      2.1      0.2    11      3.4      3.4   100      5.5     3.6     66
     8     5  1976   129    4      623.4     0.0      0.0    0.0    0.0    0.0      0.0      0.0   -9.90      1.9      0.2     8      3.0      3.0   100      4.8     3.1     65
     9     5  1976   130    4      619.9     0.0      0.0    0.0    0.0    0.0      0.0      0.0   -9.90      2.1      0.1     7      3.4      3.4   100      5.5     3.5     64

Legend

DAP          : Days after planting
Stage        : 0: before/after planting
Stage        : 1: emergence or transplant recovery
Stage        : 2: vegetative stage
Stage        : 3: flowering
Stage        : 4: yield formation and ripening
WCTot        : Water content in total soil profile
Rain         : Rainfall
Irri         : Water applied by irrigation
Surf         : Stored water on soil surface between bunds
Infilt       : Infiltrated water in soil profile
RO           : Surface runoff
Drain        : Water drained out of the soil profile
CR           : Water moved upward by capillary rise
Zgwt         : Depth of the groundwater table (-9.90 if absent)
Ex           : Maximum soil evaporation
E            : Soil evaporation
E/Ex         : Relative soil evaporation (100 E/Ex)
Trx          : Maximum crop transpiration
Tr           : Total transpiration of crop and weeds
Tr/Trx       : Relative transpiration (100 Tr/Trx)
ETx          : Evapotranspiration maximale
ET           : Evapotranspiration
ET/ETx       : Evapotranspiration relative (100 ET/ETx)
