AquaCrop 7.2 (August 2024) - Output created on (date) : 04-12-2024   at (time) : 03:40:10 PM
Soil Water content in soil profile (WC) and root zone (Wr)

** Run number:  1   -- Water content in soil profile (WCTot layer: 0.00 - 2.00 m) and root zone (Wr with Zx = 2.00 m)
   Day Month  Year   DAP Stage     WCTot   Wr(Zx)      Z       Wr    Wr(SAT)    Wr(FC)   Wr(exp)   Wr(sto)   Wr(sen)   Wr(PWP)
                                     mm       mm       m       mm        mm        mm        mm        mm        mm        mm
     1     1  1976     1    1     664.9    664.9    0.30    103.9     129.0      99.0      88.2      46.8      48.6      27.0
     2     1  1976     2    1     666.1    666.1    0.30    103.5     129.0      99.0      88.2      47.2      48.6      27.0
     3     1  1976     3    1     663.2    663.2    0.30    100.1     129.0      99.0      88.2      48.0      48.6      27.0
     4     1  1976     4    1     663.4    663.4    0.30    101.3     129.0      99.0      88.2      47.2      48.6      27.0
     5     1  1976     5    1     665.3    665.3    0.30    103.5     129.2      99.2      88.3      46.7      48.7      27.0
     6     1  1976     6    1     663.5    663.5    0.35    118.7     152.1     116.7     104.0      55.4      57.3      31.8
     7     1  1976     7    1     661.4    661.4    0.40    131.7     171.2     131.4     117.1      62.4      64.5      35.8
     8     1  1976     8    1     660.0    660.0    0.44    144.0     188.3     144.5     128.8      68.6      71.0      39.4
     9     1  1976     9    1     661.9    661.9    0.47    158.3     204.1     156.6     139.5      74.4      76.9      42.7
    10     1  1976    10    2     666.9    666.9    0.51    174.5     218.8     167.9     127.6      79.1      69.1      45.8
    11     1  1976    11    2     665.1    665.1    0.54    182.4     232.7     178.6     136.7      84.8      74.1      48.7
    12     1  1976    12    2     663.5    663.5    0.57    191.0     245.9     188.7     145.0      90.0      78.6      51.5
    13     1  1976    13    2     663.0    663.0    0.60    200.8     258.6     198.5     150.9      93.5      81.7      54.1
    14     1  1976    14    2     662.1    662.1    0.63    209.4     270.9     207.9     159.1      98.7      86.2      56.7
    15     1  1976    15    2     660.8    660.8    0.66    217.3     282.7     217.0     166.1     103.1      90.0      59.2
    16     1  1976    16    2     660.8    660.8    0.68    226.4     294.2     225.8     172.9     107.2      93.7      61.6
    17     1  1976    17    2     660.0    660.0    0.71    234.2     305.4     234.4     180.1     111.8      97.6      63.9
    18     1  1976    18    2     660.8    660.8    0.74    243.4     316.3     242.7     185.2     114.8     100.3      66.2
    19     1  1976    19    2     662.4    662.4    0.76    253.3     326.9     250.9     191.4     118.7     103.7      68.4
    20     1  1976    20    2     666.0    666.0    0.78    264.7     337.3     258.9     198.2     123.0     107.4      70.6
    21     1  1976    21    2     666.6    666.6    0.81    272.6     347.5     266.7     207.1     128.7     112.4      72.7
    22     1  1976    22    2     664.7    664.7    0.83    278.1     357.5     274.4     210.8     130.8     114.3      74.8
    23     1  1976    23    2     664.5    664.5    0.85    285.6     367.3     281.9     218.1     135.5     118.3      76.9
    24     1  1976    24    2     667.2    667.2    0.88    296.0     377.0     289.3     219.9     136.3     119.1      78.9
    25     1  1976    25    2     669.1    669.1    0.90    305.0     386.4     296.6     225.4     139.7     122.1      80.9
    26     1  1976    26    2     675.2    675.2    0.92    317.9     395.8     303.7     230.8     143.1     125.0      82.8
    27     1  1976    27    2     670.2    670.2    0.94    319.2     404.9     310.8     237.1     147.0     128.4      84.8
    28     1  1976    28    2     665.1    665.1    0.96    321.4     414.0     317.7     241.5     149.7     130.8      86.7
    29     1  1976    29    2     661.5    661.5    0.98    325.3     422.9     324.6     250.2     155.4     135.7      88.5
    30     1  1976    30    2     660.0    660.0    1.00    331.0     431.7     331.3     252.7     156.7     136.9      90.4
    31     1  1976    31    2     659.2    659.2    1.02    337.1     440.4     338.0     258.8     160.5     140.2      92.2
     1     2  1976    32    2     658.8    658.8    1.04    343.4     449.0     344.6     262.9     163.0     142.4      94.0
     2     2  1976    33    2     658.6    658.6    1.06    349.7     457.5     351.1     266.9     165.4     144.5      95.8
     3     2  1976    34    2     658.4    658.4    1.08    356.0     465.9     357.6     272.7     169.1     147.8      97.5
     4     2  1976    35    2     658.2    658.2    1.10    362.2     474.2     363.9     276.6     171.4     149.8      99.3
     5     2  1976    36    2     658.0    658.0    1.12    368.3     482.4     370.2     282.4     175.1     153.0     101.0
     6     2  1976    37    2     657.7    657.7    1.14    374.1     490.6     376.5     289.2     179.5     156.8     102.7
     7     2  1976    38    2     657.4    657.4    1.16    380.0     498.6     382.7     292.9     181.7     158.8     104.4
     8     2  1976    39    2     657.4    657.4    1.18    386.2     506.6     388.8     296.5     183.9     160.6     106.0
     9     2  1976    40    2     659.4    659.4    1.20    394.2     514.5     394.8     301.2     186.8     163.1     107.7
    10     2  1976    41    2     662.4    662.4    1.21    403.2     522.3     400.8     304.7     188.8     165.0     109.3
    11     2  1976    42    2     664.2    664.2    1.23    410.9     530.0     406.8     312.5     194.0     169.4     110.9
    12     2  1976    43    2     676.4    676.4    1.25    428.9     537.7     412.7     315.9     196.0     171.2     112.5
    13     2  1976    44    2     677.1    677.1    1.27    434.5     545.3     418.5     318.1     197.2     172.2     114.1
    14     2  1976    45    2     669.7    669.7    1.29    432.7     552.9     424.3     328.3     204.0     178.1     115.7
    15     2  1976    46    2     663.8    663.8    1.30    433.0     560.4     430.1     332.7     206.7     180.6     117.3
    16     2  1976    47    2     660.8    660.8    1.32    436.1     567.8     435.8     334.8     207.8     181.5     118.8
    17     2  1976    48    2     659.6    659.6    1.34    440.8     575.2     441.4     336.7     208.8     182.4     120.4
    18     2  1976    49    2     658.4    658.4    1.35    445.4     582.5     447.0     348.3     216.6     189.2     121.9
    19     2  1976    50    2     657.5    657.5    1.37    450.1     589.8     452.6     355.1     221.1     193.0     123.4
    20     2  1976    51    2     656.5    656.5    1.39    454.6     597.0     458.1     359.5     223.8     195.4     124.9
    21     2  1976    52    2     655.7    655.7    1.40    459.3     604.1     463.6     362.5     225.6     197.0     126.4
    22     2  1976    53    2     654.8    654.8    1.42    463.9     611.3     469.1     369.3     230.0     200.8     127.9
    23     2  1976    54    2     654.1    654.1    1.44    468.7     618.3     474.5     369.7     229.9     200.8     129.4
    24     2  1976    55    2     654.5    654.5    1.45    474.4     625.3     479.9     367.4     227.9     199.1     130.9
    25     2  1976    56    2     653.9    653.9    1.47    479.2     632.3     485.3     374.1     232.3     202.9     132.3
    26     2  1976    57    2     653.3    653.3    1.49    483.9     639.2     490.6     380.9     236.8     206.8     133.8
    27     2  1976    58    2     652.7    652.7    1.50    488.6     646.1     495.9     385.0     239.3     209.0     135.2
    28     2  1976    59    2     651.9    651.9    1.52    493.0     653.0     501.1     394.5     245.7     214.5     136.7
    29     2  1976    60    2     654.2    654.2    1.53    500.5     659.8     506.3     400.0     249.3     217.6     138.1
     1     3  1976    61    2     653.7    653.7    1.55    505.2     666.5     511.5     401.3     249.8     218.1     139.5
     2     3  1976    62    2     653.0    653.0    1.57    509.7     673.2     516.7     405.4     252.4     220.3     140.9
     3     3  1976    63    2     652.2    652.2    1.58    514.0     679.9     521.8     415.1     258.9     226.0     142.3
     4     3  1976    64    2     651.3    651.3    1.60    518.2     686.6     526.9     424.9     265.5     231.7     143.7
     5     3  1976    65    2     650.7    650.7    1.61    522.7     693.2     532.0     421.7     262.9     229.5     145.1
     6     3  1976    66    2     650.3    650.3    1.63    527.3     699.7     537.0     421.3     262.3     229.0     146.5
     7     3  1976    67    2     650.0    650.0    1.64    532.0     706.3     542.0     422.3     262.7     229.4     147.8
     8     3  1976    68    2     649.7    649.7    1.66    536.7     712.8     547.0     424.7     264.0     230.6     149.2
     9     3  1976    69    2     649.5    649.5    1.67    541.5     719.2     552.0     427.1     265.4     231.7     150.5
    10     3  1976    70    2     649.2    649.2    1.69    546.1     725.7     556.9     435.4     270.9     236.6     151.9
    11     3  1976    71    2     648.6    648.6    1.70    550.5     732.1     561.8     451.5     282.0     246.1     153.2
    12     3  1976    72    3     654.4    654.4    1.72    561.1     738.4     566.7     449.3     280.1     244.5     154.6
    13     3  1976    73    3     654.5    654.5    1.73    566.1     744.8     571.6     448.5     279.2     243.7     155.9
    14     3  1976    74    3     655.0    655.0    1.75    571.4     751.1     576.4     452.3     281.5     245.8     157.2
    15     3  1976    75    3     655.0    655.0    1.76    576.2     757.4     581.2     452.9     281.7     245.9     158.5
    16     3  1976    76    3     654.6    654.6    1.78    580.6     763.6     586.0     459.8     286.2     249.9     159.8
    17     3  1976    77    3     658.4    658.4    1.79    589.2     769.8     590.8     463.5     288.6     251.9     161.1
    18     3  1976    78    3     658.1    658.1    1.80    593.6     776.0     595.6     464.0     288.6     252.0     162.4
    19     3  1976    79    3     657.7    657.7    1.82    598.0     782.2     600.3     469.4     292.1     255.0     163.7
    20     3  1976    80    3     657.2    657.2    1.83    602.2     788.3     605.0     486.2     303.7     265.0     165.0
    21     3  1976    81    3     656.6    656.6    1.85    606.3     794.4     609.7     493.3     308.4     269.1     166.3
    22     3  1976    82    3     656.1    656.1    1.86    610.5     800.5     614.4     490.4     306.0     267.1     167.6
    23     3  1976    83    3     655.7    655.7    1.88    614.7     806.6     619.0     495.8     309.5     270.1     168.8
    24     3  1976    84    3     659.7    659.7    1.89    623.3     812.6     623.6     497.8     310.6     271.1     170.1
    25     3  1976    85    3     660.3    660.3    1.90    628.5     818.6     628.2     484.4     300.8     262.7     171.3
    26     3  1976    86    3     668.3    668.3    1.92    641.1     824.6     632.8     489.6     304.2     265.7     172.6
    27     3  1976    87    3     666.7    666.7    1.93    644.1     830.6     637.4     496.6     308.9     269.7     173.8
    28     3  1976    88    3     663.4    663.4    1.95    645.3     836.5     642.0     503.7     313.6     273.8     175.1
    29     3  1976    89    3     660.6    660.6    1.96    647.1     842.4     646.5     519.6     324.5     283.2     176.3
    30     3  1976    90    3     658.8    658.8    1.97    649.8     848.3     651.0     521.4     325.5     284.1     177.5
    31     3  1976    91    3     657.7    657.7    1.99    653.2     854.2     655.5     519.7     324.0     282.8     178.8
     1     4  1976    92    3     655.6    655.6    2.00    655.6     860.0     660.0     539.4     337.6     294.5     180.0
     2     4  1976    93    3     658.2    658.2    2.00    658.2     860.0     660.0     523.2     326.2     284.7     180.0
     3     4  1976    94    3     657.5    657.5    2.00    657.5     860.0     660.0     532.2     332.6     290.2     180.0
     4     4  1976    95    3     657.3    657.3    2.00    657.3     860.0     660.0     521.4     324.9     283.6     180.0
     5     4  1976    96    3     656.3    656.3    2.00    656.3     860.0     660.0     537.6     336.4     293.5     180.0
     6     4  1976    97    3     655.8    655.8    2.00    655.8     860.0     660.0     516.0     321.1     280.4     180.0
     7     4  1976    98    3     656.0    656.0    2.00    656.0     860.0     660.0     523.2     326.2     284.7     180.0
     8     4  1976    99    3     655.3    655.3    2.00    655.3     860.0     660.0     530.4     331.3     289.1     180.0
     9     4  1976   100    3     654.6    654.6    2.00    654.6     860.0     660.0     537.6     336.4     293.5     180.0
    10     4  1976   101    4     653.6    653.6    2.00    653.6     860.0     660.0     548.4     344.0     300.0     180.0
    11     4  1976   102    4     651.6    651.6    2.00    651.6     860.0     660.0     557.4     350.4     305.5     180.0
    12     4  1976   103    4     649.9    649.9    2.00    649.9     860.0     660.0     552.0     346.6     302.2     180.0
    13     4  1976   104    4     653.3    653.3    2.00    653.3     860.0     660.0     548.4     344.0     300.0     180.0
    14     4  1976   105    4     653.0    653.0    2.00    653.0     860.0     660.0     516.0     321.1     280.4     180.0
    15     4  1976   106    4     650.9    650.9    2.00    650.9     860.0     660.0     544.8     341.5     297.8     180.0
    16     4  1976   107    4     650.1    650.1    2.00    650.1     860.0     660.0     525.0     327.5     285.8     180.0
    17     4  1976   108    4     648.8    648.8    2.00    648.8     860.0     660.0     537.6     336.4     293.5     180.0
    18     4  1976   109    4     646.2    646.2    2.00    646.2     860.0     660.0     555.6     349.1     304.4     180.0
    19     4  1976   110    4     643.3    643.3    2.00    643.3     860.0     660.0     561.0     352.9     307.6     180.0
    20     4  1976   111    4     640.4    640.4    2.00    640.4     860.0     660.0     568.2     358.0     312.0     180.0
    21     4  1976   112    4     640.1    640.1    2.00    640.1     860.0     660.0     526.8     328.7     286.9     180.0
    22     4  1976   113    4     639.6    639.6    2.00    639.6     860.0     660.0     550.2     345.3     301.1     180.0
    23     4  1976   114    4     639.4    639.4    2.00    639.4     860.0     660.0     537.6     336.4     293.5     180.0
    24     4  1976   115    4     639.3    639.3    2.00    639.3     860.0     660.0     534.0     333.8     291.3     180.0
    25     4  1976   116    4     638.9    638.9    2.00    638.9     860.0     660.0     539.4     337.6     294.5     180.0
    26     4  1976   117    4     637.6    637.6    2.00    637.6     860.0     660.0     559.2     351.6     306.5     180.0
    27     4  1976   118    4     637.4    637.4    2.00    637.4     860.0     660.0     530.4     331.3     289.1     180.0
    28     4  1976   119    4     637.3    637.3    2.00    637.3     860.0     660.0     543.0     340.2     296.7     180.0
    29     4  1976   120    4     637.1    637.1    2.00    637.1     860.0     660.0     548.4     344.0     300.0     180.0
    30     4  1976   121    4     636.9    636.9    2.00    636.9     860.0     660.0     541.2     338.9     295.6     180.0
     1     5  1976   122    4     636.2    636.2    2.00    636.2     860.0     660.0     550.2     345.3     301.1     180.0
     2     5  1976   123    4     637.3    637.3    2.00    637.3     860.0     660.0     534.0     333.8     291.3     180.0
     3     5  1976   124    4     638.3    638.3    2.00    638.3     860.0     660.0     519.6     323.6     282.5     180.0
     4     5  1976   125    4     636.4    636.4    2.00    636.4     860.0     660.0     541.2     338.9     295.6     180.0
     5     5  1976   126    4     633.5    633.5    2.00    633.5     860.0     660.0     564.6     355.5     309.8     180.0
     6     5  1976   127    4     630.1    630.1    2.00    630.1     860.0     660.0     589.8     373.3     325.1     180.0
     7     5  1976   128    4     626.5    626.5    2.00    626.5     860.0     660.0     598.8     379.6     330.5     180.0
     8     5  1976   129    4     623.4    623.4    2.00    623.4     860.0     660.0     586.2     370.7     322.9     180.0
     9     5  1976   130    4     619.9    619.9    2.00    619.9     860.0     660.0     598.8     379.6     330.5     180.0

Legend

DAP          : Days after planting
Stage        : 0: before/after planting
Stage        : 1: emergence or transplant recovery
Stage        : 2: vegetative stage
Stage        : 3: flowering
Stage        : 4: yield formation and ripening
WCTot        : Water content in total soil profile (layer: 0.00 - 2.00 m)
Wr(Zx)       : Water content in maximum effective root zone (Zx = 2.00 m)
Z            : Effective rooting depth
Wr           : Water content in effective root zone
Wr(Sat)      : Water content in effective root zone if saturated
Wr(FC)       : Water content in effective root zone at field capacity
Wr(exp)      : Water content in effective root zone at upper threshold for leaf expansion
Wr(sto)      : Water content in effective root zone at upper threshold for stomatal closure
Wr(sen)      : Water content in effective root zone at upper threshold for early canopy senescence
Wr(PWP)      : Water content in effective root zone at permanent wilting point
