AquaCrop 7.2 (August 2024) - Output created on (date) : 04-12-2024   at (time) : 03:40:10 PM
Soil Water Content (WC) at various depths (at center of compartments)

** Run number:  1
                 at depth (m):      0.05        0.15        0.28        0.43        0.58        0.73        0.88        1.05        1.25        1.45        1.65        1.88
   Day Month  Year   DAP Stage   WC1(vol%)   WC2(vol%)   WC3(vol%)   WC4(vol%)   WC5(vol%)   WC6(vol%)   WC7(vol%)   WC8(vol%)   WC9(vol%)  WC10(vol%)  WC11(vol%)  WC12(vol%)
     1     1  1976     1    1       37.9        33.0        33.0        33.0        33.0        33.0        33.0        33.0        33.0        33.0        33.0        33.0
     2     1  1976     2    1       36.1        34.0        33.5        33.3        33.2        33.1        33.1        33.0        33.0        33.0        33.0        33.0
     3     1  1976     3    1       32.9        33.8        33.4        33.3        33.2        33.2        33.1        33.1        33.1        33.1        33.1        33.0
     4     1  1976     4    1       34.9        33.2        33.1        33.1        33.1        33.1        33.1        33.1        33.1        33.1        33.0        33.0
     5     1  1976     5    1       36.7        33.4        33.2        33.1        33.1        33.1        33.1        33.0        33.0        33.0        33.0        33.0
     6     1  1976     6    1       33.5        33.8        33.4        33.2        33.2        33.1        33.1        33.1        33.1        33.1        33.0        33.0
     7     1  1976     7    1       32.7        33.2        33.2        33.1        33.1        33.1        33.1        33.1        33.1        33.1        33.0        33.0
     8     1  1976     8    1       32.3        33.1        33.1        33.0        33.0        33.0        33.0        33.0        33.0        33.0        33.0        33.0
     9     1  1976     9    1       34.7        33.0        33.0        33.0        33.0        33.0        33.0        33.0        33.0        33.0        33.0        33.0
    10     1  1976    10    2       38.9        33.3        33.2        33.1        33.0        33.0        33.0        33.0        33.0        33.0        33.0        33.0
    11     1  1976    11    2       34.1        34.2        33.6        33.3        33.3        33.2        33.1        33.1        33.1        33.1        33.0        33.0
    12     1  1976    12    2       34.0        33.3        33.3        33.2        33.2        33.1        33.1        33.1        33.1        33.1        33.1        33.1
    13     1  1976    13    2       34.6        33.3        33.1        33.1        33.1        33.1        33.1        33.1        33.1        33.0        33.0        33.0
    14     1  1976    14    2       33.5        33.4        33.2        33.1        33.1        33.1        33.1        33.0        33.0        33.0        33.0        33.0
    15     1  1976    15    2       32.7        33.1        33.1        33.1        33.1        33.1        33.0        33.0        33.0        33.0        33.0        33.0
    16     1  1976    16    2       33.4        33.0        33.0        33.0        33.0        33.0        33.0        33.0        33.0        33.0        33.0        33.0
    17     1  1976    17    2       32.6        33.1        33.0        33.0        33.0        33.0        33.0        33.0        33.0        33.0        33.0        33.0
    18     1  1976    18    2       33.6        33.0        33.0        33.0        33.0        33.0        33.0        33.0        33.0        33.0        33.0        33.0
    19     1  1976    19    2       35.1        33.1        33.1        33.0        33.0        33.0        33.0        33.0        33.0        33.0        33.0        33.0
    20     1  1976    20    2       37.7        33.4        33.2        33.1        33.1        33.0        33.0        33.0        33.0        33.0        33.0        33.0
    21     1  1976    21    2       36.1        34.0        33.5        33.3        33.2        33.2        33.1        33.1        33.1        33.1        33.0        33.0
    22     1  1976    22    2       33.9        33.8        33.5        33.4        33.2        33.2        33.1        33.1        33.1        33.1        33.1        33.1
    23     1  1976    23    2       35.4        33.2        33.2        33.2        33.1        33.1        33.1        33.1        33.1        33.1        33.1        33.1
    24     1  1976    24    2       38.2        33.5        33.3        33.1        33.1        33.1        33.1        33.1        33.1        33.0        33.0        33.0
    25     1  1976    25    2       38.3        34.1        33.6        33.3        33.2        33.1        33.1        33.1        33.1        33.1        33.1        33.0
    26     1  1976    26    2       42.8        34.3        33.7        33.6        33.3        33.3        33.2        33.1        33.1        33.1        33.1        33.1
    27     1  1976    27    2       35.1        35.1        34.2        33.6        33.4        33.3        33.3        33.2        33.2        33.2        33.1        33.1
    28     1  1976    28    2       33.4        33.6        33.6        33.4        33.3        33.3        33.2        33.2        33.2        33.1        33.1        33.1
    29     1  1976    29    2       32.6        33.2        33.2        33.1        33.1        33.1        33.1        33.1        33.1        33.1        33.1        33.1
    30     1  1976    30    2       32.3        33.0        33.0        33.0        33.0        33.0        33.0        33.0        33.0        33.0        33.0        33.0
    31     1  1976    31    2       32.0        33.0        33.0        33.0        33.0        33.0        33.0        33.0        33.0        33.0        33.0        33.0
     1     2  1976    32    2       31.8        33.0        33.0        33.0        33.0        33.0        33.0        33.0        33.0        33.0        33.0        33.0
     2     2  1976    33    2       31.6        33.0        33.0        33.0        33.0        33.0        33.0        33.0        33.0        33.0        33.0        33.0
     3     2  1976    34    2       31.4        33.0        33.0        33.0        33.0        33.0        33.0        33.0        33.0        33.0        33.0        33.0
     4     2  1976    35    2       31.2        33.0        33.0        33.0        33.0        33.0        33.0        33.0        33.0        33.0        33.0        33.0
     5     2  1976    36    2       31.0        33.0        33.0        33.0        33.0        33.0        33.0        33.0        33.0        33.0        33.0        33.0
     6     2  1976    37    2       30.7        33.0        33.0        33.0        33.0        33.0        33.0        33.0        33.0        33.0        33.0        33.0
     7     2  1976    38    2       30.4        33.0        33.0        33.0        33.0        33.0        33.0        33.0        33.0        33.0        33.0        33.0
     8     2  1976    39    2       30.4        33.0        33.0        33.0        33.0        33.0        33.0        33.0        33.0        33.0        33.0        33.0
     9     2  1976    40    2       32.4        33.0        33.0        33.0        33.0        33.0        33.0        33.0        33.0        33.0        33.0        33.0
    10     2  1976    41    2       35.4        33.0        33.0        33.0        33.0        33.0        33.0        33.0        33.0        33.0        33.0        33.0
    11     2  1976    42    2       35.9        33.5        33.2        33.1        33.1        33.0        33.0        33.0        33.0        33.0        33.0        33.0
    12     2  1976    43    2       42.6        38.2        33.4        33.2        33.1        33.1        33.1        33.1        33.0        33.0        33.0        33.0
    13     2  1976    44    2       40.2        35.3        34.7        33.8        33.5        33.4        33.4        33.2        33.2        33.2        33.1        33.1
    14     2  1976    45    2       34.1        34.8        34.1        33.7        33.5        33.4        33.3        33.3        33.2        33.2        33.2        33.1
    15     2  1976    46    2       32.6        33.5        33.4        33.3        33.3        33.2        33.2        33.2        33.2        33.1        33.1        33.1
    16     2  1976    47    2       32.3        33.1        33.1        33.1        33.1        33.1        33.1        33.1        33.1        33.1        33.1        33.1
    17     2  1976    48    2       32.1        33.0        33.0        33.0        33.0        33.0        33.0        33.0        33.0        33.0        33.0        33.0
    18     2  1976    49    2       31.3        33.0        33.0        33.0        33.0        33.0        33.0        33.0        33.0        33.0        33.0        33.0
    19     2  1976    50    2       30.5        33.0        33.0        33.0        33.0        33.0        33.0        33.0        33.0        33.0        33.0        33.0
    20     2  1976    51    2       29.5        33.0        33.0        33.0        33.0        33.0        33.0        33.0        33.0        33.0        33.0        33.0
    21     2  1976    52    2       28.7        33.0        33.0        33.0        33.0        33.0        33.0        33.0        33.0        33.0        33.0        33.0
    22     2  1976    53    2       27.8        33.0        33.0        33.0        33.0        33.0        33.0        33.0        33.0        33.0        33.0        33.0
    23     2  1976    54    2       27.1        33.0        33.0        33.0        33.0        33.0        33.0        33.0        33.0        33.0        33.0        33.0
    24     2  1976    55    2       27.5        33.0        33.0        33.0        33.0        33.0        33.0        33.0        33.0        33.0        33.0        33.0
    25     2  1976    56    2       26.9        33.0        33.0        33.0        33.0        33.0        33.0        33.0        33.0        33.0        33.0        33.0
    26     2  1976    57    2       26.3        33.0        33.0        33.0        33.0        33.0        33.0        33.0        33.0        33.0        33.0        33.0
    27     2  1976    58    2       25.7        33.0        33.0        33.0        33.0        33.0        33.0        33.0        33.0        33.0        33.0        33.0
    28     2  1976    59    2       24.9        33.0        33.0        33.0        33.0        33.0        33.0        33.0        33.0        33.0        33.0        33.0
    29     2  1976    60    2       27.2        33.0        33.0        33.0        33.0        33.0        33.0        33.0        33.0        33.0        33.0        33.0
     1     3  1976    61    2       26.7        33.0        33.0        33.0        33.0        33.0        33.0        33.0        33.0        33.0        33.0        33.0
     2     3  1976    62    2       26.0        33.0        33.0        33.0        33.0        33.0        33.0        33.0        33.0        33.0        33.0        33.0
     3     3  1976    63    2       25.2        33.0        33.0        33.0        33.0        33.0        33.0        33.0        33.0        33.0        33.0        33.0
     4     3  1976    64    2       24.3        33.0        33.0        33.0        33.0        33.0        33.0        33.0        33.0        33.0        33.0        33.0
     5     3  1976    65    2       23.7        33.0        33.0        33.0        33.0        33.0        33.0        33.0        33.0        33.0        33.0        33.0
     6     3  1976    66    2       23.3        33.0        33.0        33.0        33.0        33.0        33.0        33.0        33.0        33.0        33.0        33.0
     7     3  1976    67    2       23.0        33.0        33.0        33.0        33.0        33.0        33.0        33.0        33.0        33.0        33.0        33.0
     8     3  1976    68    2       22.7        33.0        33.0        33.0        33.0        33.0        33.0        33.0        33.0        33.0        33.0        33.0
     9     3  1976    69    2       22.5        33.0        33.0        33.0        33.0        33.0        33.0        33.0        33.0        33.0        33.0        33.0
    10     3  1976    70    2       22.2        33.0        33.0        33.0        33.0        33.0        33.0        33.0        33.0        33.0        33.0        33.0
    11     3  1976    71    2       21.6        33.0        33.0        33.0        33.0        33.0        33.0        33.0        33.0        33.0        33.0        33.0
    12     3  1976    72    3       27.4        33.0        33.0        33.0        33.0        33.0        33.0        33.0        33.0        33.0        33.0        33.0
    13     3  1976    73    3       27.5        33.0        33.0        33.0        33.0        33.0        33.0        33.0        33.0        33.0        33.0        33.0
    14     3  1976    74    3       28.0        33.0        33.0        33.0        33.0        33.0        33.0        33.0        33.0        33.0        33.0        33.0
    15     3  1976    75    3       28.0        33.0        33.0        33.0        33.0        33.0        33.0        33.0        33.0        33.0        33.0        33.0
    16     3  1976    76    3       27.6        33.0        33.0        33.0        33.0        33.0        33.0        33.0        33.0        33.0        33.0        33.0
    17     3  1976    77    3       31.4        33.0        33.0        33.0        33.0        33.0        33.0        33.0        33.0        33.0        33.0        33.0
    18     3  1976    78    3       31.1        33.0        33.0        33.0        33.0        33.0        33.0        33.0        33.0        33.0        33.0        33.0
    19     3  1976    79    3       30.7        33.0        33.0        33.0        33.0        33.0        33.0        33.0        33.0        33.0        33.0        33.0
    20     3  1976    80    3       30.2        33.0        33.0        33.0        33.0        33.0        33.0        33.0        33.0        33.0        33.0        33.0
    21     3  1976    81    3       29.6        33.0        33.0        33.0        33.0        33.0        33.0        33.0        33.0        33.0        33.0        33.0
    22     3  1976    82    3       29.1        33.0        33.0        33.0        33.0        33.0        33.0        33.0        33.0        33.0        33.0        33.0
    23     3  1976    83    3       28.7        33.0        33.0        33.0        33.0        33.0        33.0        33.0        33.0        33.0        33.0        33.0
    24     3  1976    84    3       32.7        33.0        33.0        33.0        33.0        33.0        33.0        33.0        33.0        33.0        33.0        33.0
    25     3  1976    85    3       33.3        33.0        33.0        33.0        33.0        33.0        33.0        33.0        33.0        33.0        33.0        33.0
    26     3  1976    86    3       41.1        33.1        33.0        33.0        33.0        33.0        33.0        33.0        33.0        33.0        33.0        33.0
    27     3  1976    87    3       34.7        34.6        33.8        33.4        33.4        33.2        33.1        33.1        33.1        33.1        33.0        33.0
    28     3  1976    88    3       33.0        33.5        33.4        33.3        33.2        33.2        33.2        33.1        33.1        33.1        33.1        33.1
    29     3  1976    89    3       32.3        33.1        33.1        33.1        33.1        33.1        33.1        33.1        33.1        33.1        33.0        33.0
    30     3  1976    90    3       31.3        33.0        33.0        33.0        33.0        33.0        33.0        33.0        33.0        33.0        33.0        33.0
    31     3  1976    91    3       30.6        33.0        33.0        33.0        33.0        33.0        33.0        33.0        33.0        33.0        33.0        33.0
     1     4  1976    92    3       28.6        33.0        33.0        33.0        33.0        33.0        33.0        33.0        33.0        33.0        33.0        33.0
     2     4  1976    93    3       31.1        33.0        33.0        33.0        33.0        33.0        33.0        33.0        33.0        33.0        33.0        33.0
     3     4  1976    94    3       30.5        33.0        33.0        33.0        33.0        33.0        33.0        33.0        33.0        33.0        33.0        33.0
     4     4  1976    95    3       30.3        33.0        33.0        33.0        33.0        33.0        33.0        33.0        33.0        33.0        33.0        33.0
     5     4  1976    96    3       29.3        33.0        33.0        33.0        33.0        33.0        33.0        33.0        33.0        33.0        33.0        33.0
     6     4  1976    97    3       28.8        33.0        33.0        33.0        33.0        33.0        33.0        33.0        33.0        33.0        33.0        33.0
     7     4  1976    98    3       29.0        33.0        33.0        33.0        33.0        33.0        33.0        33.0        33.0        33.0        33.0        33.0
     8     4  1976    99    3       28.3        33.0        33.0        33.0        33.0        33.0        33.0        33.0        33.0        33.0        33.0        33.0
     9     4  1976   100    3       27.6        33.0        33.0        33.0        33.0        33.0        33.0        33.0        33.0        33.0        33.0        33.0
    10     4  1976   101    4       26.6        33.0        33.0        33.0        33.0        33.0        33.0        33.0        33.0        33.0        33.0        33.0
    11     4  1976   102    4       24.6        33.0        33.0        33.0        33.0        33.0        33.0        33.0        33.0        33.0        33.0        33.0
    12     4  1976   103    4       22.9        33.0        33.0        33.0        33.0        33.0        33.0        33.0        33.0        33.0        33.0        33.0
    13     4  1976   104    4       26.3        33.0        33.0        33.0        33.0        33.0        33.0        33.0        33.0        33.0        33.0        33.0
    14     4  1976   105    4       26.0        33.0        33.0        33.0        33.0        33.0        33.0        33.0        33.0        33.0        33.0        33.0
    15     4  1976   106    4       23.9        33.0        33.0        33.0        33.0        33.0        33.0        33.0        33.0        33.0        33.0        33.0
    16     4  1976   107    4       23.1        33.0        33.0        33.0        33.0        33.0        33.0        33.0        33.0        33.0        33.0        33.0
    17     4  1976   108    4       21.8        33.0        33.0        33.0        33.0        33.0        33.0        33.0        33.0        33.0        33.0        33.0
    18     4  1976   109    4       19.2        33.0        33.0        33.0        33.0        33.0        33.0        33.0        33.0        33.0        33.0        33.0
    19     4  1976   110    4       16.3        33.0        33.0        33.0        33.0        33.0        33.0        33.0        33.0        33.0        33.0        33.0
    20     4  1976   111    4       13.4        33.0        33.0        33.0        33.0        33.0        33.0        33.0        33.0        33.0        33.0        33.0
    21     4  1976   112    4       13.1        33.0        33.0        33.0        33.0        33.0        33.0        33.0        33.0        33.0        33.0        33.0
    22     4  1976   113    4       12.6        33.0        33.0        33.0        33.0        33.0        33.0        33.0        33.0        33.0        33.0        33.0
    23     4  1976   114    4       12.4        33.0        33.0        33.0        33.0        33.0        33.0        33.0        33.0        33.0        33.0        33.0
    24     4  1976   115    4       12.3        33.0        33.0        33.0        33.0        33.0        33.0        33.0        33.0        33.0        33.0        33.0
    25     4  1976   116    4       11.9        33.0        33.0        33.0        33.0        33.0        33.0        33.0        33.0        33.0        33.0        33.0
    26     4  1976   117    4       10.6        33.0        33.0        33.0        33.0        33.0        33.0        33.0        33.0        33.0        33.0        33.0
    27     4  1976   118    4       10.4        33.0        33.0        33.0        33.0        33.0        33.0        33.0        33.0        33.0        33.0        33.0
    28     4  1976   119    4       10.3        33.0        33.0        33.0        33.0        33.0        33.0        33.0        33.0        33.0        33.0        33.0
    29     4  1976   120    4       10.1        33.0        33.0        33.0        33.0        33.0        33.0        33.0        33.0        33.0        33.0        33.0
    30     4  1976   121    4        9.9        33.0        33.0        33.0        33.0        33.0        33.0        33.0        33.0        33.0        33.0        33.0
     1     5  1976   122    4        9.2        33.0        33.0        33.0        33.0        33.0        33.0        33.0        33.0        33.0        33.0        33.0
     2     5  1976   123    4       10.3        33.0        33.0        33.0        33.0        33.0        33.0        33.0        33.0        33.0        33.0        33.0
     3     5  1976   124    4       11.3        33.0        33.0        33.0        33.0        33.0        33.0        33.0        33.0        33.0        33.0        33.0
     4     5  1976   125    4        9.4        33.0        33.0        33.0        33.0        33.0        33.0        33.0        33.0        33.0        33.0        33.0
     5     5  1976   126    4        8.7        30.8        33.0        33.0        33.0        33.0        33.0        33.0        33.0        33.0        33.0        33.0
     6     5  1976   127    4        8.5        27.7        33.0        33.0        33.0        33.0        33.0        33.0        33.0        33.0        33.0        33.0
     7     5  1976   128    4        8.2        24.3        33.0        33.0        33.0        33.0        33.0        33.0        33.0        33.0        33.0        33.0
     8     5  1976   129    4        8.1        21.3        33.0        33.0        33.0        33.0        33.0        33.0        33.0        33.0        33.0        33.0
     9     5  1976   130    4        7.9        18.0        33.0        33.0        33.0        33.0        33.0        33.0        33.0        33.0        33.0        33.0

Legend

DAP          : Days after planting
Stage        : 0: before/after planting
Stage        : 1: emergence or transplant recovery
Stage        : 2: vegetative stage
Stage        : 3: flowering
Stage        : 4: yield formation and ripening
