AquaCrop 7.2 (August 2024) - Output created on (date) : 04-12-2024   at (time) : 03:40:10 PM
Climate input data

** Run number:  1
   Day Month  Year   DAP Stage     Rain       ETo      Tmin      Tavg      Tmax      CO2
                                    mm        mm        °C        °C        °C       ppm
     1     1  1976     1    1       5.3       0.3       3.0       6.8      10.6    332.03
     2     1  1976     2    1       2.7       0.5       4.1       8.0      11.8    332.03
     3     1  1976     3    1       0.2       0.9       6.1       6.7       7.2    332.03
     4     1  1976     4    1       2.6       0.5       1.6       4.0       6.5    332.03
     5     1  1976     5    1       3.4       0.2       1.7       5.5       9.4    332.03
     6     1  1976     6    1       0.2       0.4       6.6       8.1       9.5    332.03
     7     1  1976     7    1       0.1       0.4       7.5       8.4       9.4    332.03
     8     1  1976     8    1       0.0       0.4       5.8       6.1       6.4    332.03
     9     1  1976     9    1       2.8       0.4       5.4       5.8       6.2    332.03
    10     1  1976    10    2       5.8       0.2       4.8       8.1      11.4    332.03
    11     1  1976    11    2       0.3       0.4       5.6       8.8      11.9    332.03
    12     1  1976    12    2       1.2       0.5       8.3       9.3      10.2    332.03
    13     1  1976    13    2       1.5       0.2       7.3       7.9       8.6    332.03
    14     1  1976    14    2       0.7       0.4       7.9       8.4       8.8    332.03
    15     1  1976    15    2       0.1       0.4       3.8       5.3       6.8    332.03
    16     1  1976    16    2       1.1       0.4       3.7       5.5       7.2    332.03
    17     1  1976    17    2       0.0       0.5       5.3       6.4       7.6    332.03
    18     1  1976    18    2       1.3       0.3      -1.4       1.7       4.7    332.03
    19     1  1976    19    2       2.2       0.3      -1.3       3.1       7.5    332.03
    20     1  1976    20    2       4.6       0.4       2.8       6.5      10.2    332.03
    21     1  1976    21    2       2.9       0.8       4.6       6.6       8.6    332.03
    22     1  1976    22    2       1.0       0.5       5.2       7.5       9.8    332.03
    23     1  1976    23    2       2.8       0.7       7.6       7.6       7.6    332.03
    24     1  1976    24    2       4.8       0.2      -0.4       1.4       3.1    332.03
    25     1  1976    25    2       4.2       0.2      -0.7       1.1       2.9    332.03
    26     1  1976    26    2      10.2       0.2      -2.8      -1.0       0.8    332.03
    27     1  1976    27    2       0.3       0.3      -3.2      -1.0       1.2    332.03
    28     1  1976    28    2       0.0       0.2      -6.2      -3.1      -0.1    332.03
    29     1  1976    29    2       0.0       0.6      -7.2      -3.8      -0.4    332.03
    30     1  1976    30    2       0.0       0.3      -9.6      -6.5      -3.5    332.03
    31     1  1976    31    2       0.0       0.4      -9.2      -6.4      -3.6    332.03
     1     2  1976    32    2       0.0       0.3      -7.8      -5.1      -2.4    332.03
     2     2  1976    33    2       0.0       0.2      -7.3      -5.0      -2.6    332.03
     3     2  1976    34    2       0.0       0.3      -7.3      -3.9      -0.6    332.03
     4     2  1976    35    2       0.0       0.2      -4.5      -2.7      -0.9    332.03
     5     2  1976    36    2       0.0       0.3      -4.4      -0.9       2.7    332.03
     6     2  1976    37    2       0.0       0.5      -2.1       1.6       5.2    332.03
     7     2  1976    38    2       0.0       0.4      -2.9      -0.4       2.1    332.03
     8     2  1976    39    2       0.3       0.3      -0.3       1.9       4.1    332.03
     9     2  1976    40    2       2.3       0.3       1.7       3.4       5.0    332.03
    10     2  1976    41    2       3.2       0.2       3.4       4.9       6.4    332.03
    11     2  1976    42    2       2.7       0.5       1.9       3.6       5.3    332.03
    12     2  1976    43    2      16.4       0.4       0.9       3.9       6.9    332.03
    13     2  1976    44    2       5.7       0.2       2.2       3.9       5.5    332.03
    14     2  1976    45    2       0.0       0.7       0.3       0.6       0.8    332.03
    15     2  1976    46    2       0.0       0.7      -2.0      -1.3      -0.6    332.03
    16     2  1976    47    2       0.1       0.5      -2.4      -0.3       1.8    332.03
    17     2  1976    48    2       0.1       0.3      -0.4       1.5       3.4    332.03
    18     2  1976    49    2       0.0       0.9      -0.6       5.0      10.6    332.03
    19     2  1976    50    2       0.2       1.1       0.7       6.6      12.6    332.03
    20     2  1976    51    2       0.0       1.1       5.6       9.5      13.4    332.03
    21     2  1976    52    2       0.0       1.0       6.8       9.8      12.8    332.03
    22     2  1976    53    2       0.0       1.2       7.2       9.9      12.6    332.03
    23     2  1976    54    2       0.0       0.9       6.3       9.4      12.5    332.03
    24     2  1976    55    2       0.7       0.4       6.6       8.5      10.4    332.03
    25     2  1976    56    2       0.0       0.6       7.3       8.7      10.1    332.03
    26     2  1976    57    2       0.0       0.8       7.1       8.1       9.2    332.03
    27     2  1976    58    2       0.0       0.8       3.6       6.8      10.1    332.03
    28     2  1976    59    2       0.0       1.2       3.3       8.7      14.0    332.03
    29     2  1976    60    2       3.4       1.3       4.8       9.1      13.3    332.03
     1     3  1976    61    2       0.2       1.1       2.6       6.0       9.4    332.03
     2     3  1976    62    2       0.0       1.1      -1.3       4.8      11.0    332.03
     3     3  1976    63    2       0.0       1.5       0.5       6.0      11.6    332.03
     4     3  1976    64    2       0.0       1.9       0.1       6.3      12.5    332.03
     5     3  1976    65    2       0.0       1.4      -1.4       2.4       6.2    332.03
     6     3  1976    66    2       0.0       1.1      -4.1      -0.5       3.0    332.03
     7     3  1976    67    2       0.0       0.9      -3.4      -0.6       2.1    332.03
     8     3  1976    68    2       0.0       0.8      -5.7      -2.9      -0.1    332.03
     9     3  1976    69    2       0.0       0.7      -5.7      -1.4       2.9    332.03
    10     3  1976    70    2       0.0       1.0      -5.6      -0.5       4.6    332.03
    11     3  1976    71    2       0.0       1.8      -1.3       3.1       7.6    332.03
    12     3  1976    72    3       6.5       1.4       1.5       4.3       7.2    332.03
    13     3  1976    73    3       0.8       1.1       2.5       5.8       9.2    332.03
    14     3  1976    74    3       1.1       1.1       3.5       7.3      11.0    332.03
    15     3  1976    75    3       0.4       0.9       3.9       6.7       9.4    332.03
    16     3  1976    76    3       0.1       1.1       4.0       7.0      10.0    332.03
    17     3  1976    77    3       4.4       1.1       5.3       8.3      11.2    332.03
    18     3  1976    78    3       0.1       0.9       5.8       8.1      10.3    332.03
    19     3  1976    79    3       0.0       1.0       0.7       2.6       4.5    332.03
    20     3  1976    80    3       0.0       1.8      -2.3       2.9       8.2    332.03
    21     3  1976    81    3       0.0       2.0      -2.2       3.1       8.5    332.03
    22     3  1976    82    3       0.0       1.6      -3.7       0.4       4.4    332.03
    23     3  1976    83    3       0.0       1.7      -3.3       2.4       8.2    332.03
    24     3  1976    84    3       4.6       1.6      -2.8       2.8       8.4    332.03
    25     3  1976    85    3       0.8       0.6      -0.5       5.0      10.5    332.03
    26     3  1976    86    3       9.0       0.7       5.4       7.8      10.2    332.03
    27     3  1976    87    3       0.4       0.9       2.0       5.3       8.6    332.03
    28     3  1976    88    3       0.0       1.1       4.9       7.3       9.7    332.03
    29     3  1976    89    3       0.1       1.8       3.7       8.2      12.6    332.03
    30     3  1976    90    3       0.0       1.7       5.7       9.2      12.7    332.03
    31     3  1976    91    3       0.0       1.4       5.3       9.3      13.2    332.03
     1     4  1976    92    3       0.0       2.3       6.0      12.2      18.4    332.03
     2     4  1976    93    3       3.4       1.4       6.6       9.2      11.8    332.03
     3     4  1976    94    3       0.1       1.9       4.6       7.1       9.7    332.03
     4     4  1976    95    3       0.3       1.3       4.2       6.7       9.1    332.03
     5     4  1976    96    3       0.0       2.2       2.5       8.2      13.9    332.03
     6     4  1976    97    3       0.0       1.0       5.7       8.8      11.8    332.03
     7     4  1976    98    3       0.8       1.4       5.2       7.3       9.4    332.03
     8     4  1976    99    3       0.0       1.8       2.5       5.8       9.2    332.03
     9     4  1976   100    3       0.0       2.2      -1.3       4.9      11.1    332.03
    10     4  1976   101    4       0.0       2.8       0.9       7.3      13.7    332.03
    11     4  1976   102    4       0.0       3.3       3.8      10.0      16.1    332.03
    12     4  1976   103    4       0.0       3.0       4.3      10.0      15.7    332.03
    13     4  1976   104    4       5.2       2.8       3.5       9.8      16.0    332.03
    14     4  1976   105    4       0.2       1.0       6.3       7.8       9.4    332.03
    15     4  1976   106    4       0.1       2.6       5.6      11.4      17.3    332.03
    16     4  1976   107    4       0.0       1.5       6.2       9.5      12.8    332.03
    17     4  1976   108    4       0.0       2.2       4.5      10.1      15.6    332.03
    18     4  1976   109    4       0.0       3.2       5.2      12.4      19.6    332.03
    19     4  1976   110    4       0.0       3.5       8.0      14.8      21.6    332.03
    20     4  1976   111    4       0.0       3.9       8.8      14.5      20.1    332.03
    21     4  1976   112    4       0.0       1.6       5.5       7.9      10.3    332.03
    22     4  1976   113    4       0.0       2.9       3.6       7.6      11.7    332.03
    23     4  1976   114    4       0.0       2.2       0.4       4.6       8.8    332.03
    24     4  1976   115    4       0.0       2.0       0.8       5.1       9.3    332.03
    25     4  1976   116    4       0.0       2.3       4.0       8.0      12.0    332.03
    26     4  1976   117    4       0.0       3.4       3.7       9.8      15.9    332.03
    27     4  1976   118    4       0.0       1.8       5.4       7.3       9.1    332.03
    28     4  1976   119    4       0.0       2.5      -0.1       4.4       8.9    332.03
    29     4  1976   120    4       0.0       2.8      -0.4       5.1      10.7    332.03
    30     4  1976   121    4       0.0       2.4       0.4       6.7      13.0    332.03
     1     5  1976   122    4       0.0       2.9       2.8       8.9      15.1    332.03
     2     5  1976   123    4       2.3       2.0       5.5       9.5      13.5    332.03
     3     5  1976   124    4       1.9       1.2       7.0      10.1      13.2    332.03
     4     5  1976   125    4       0.0       2.4       6.4      10.9      15.5    332.03
     5     5  1976   126    4       0.0       3.7       7.6      14.3      21.0    332.03
     6     5  1976   127    4       0.0       5.1      11.4      19.5      27.6    332.03
     7     5  1976   128    4       0.0       5.6      15.5      22.2      28.9    332.03
     8     5  1976   129    4       0.0       4.9      16.0      22.1      28.3    332.03
     9     5  1976   130    4       0.0       5.6      15.5      22.6      29.8    332.03

Legend

DAP          : Days after planting
Stage        : 0: before/after planting
Stage        : 1: emergence or transplant recovery
Stage        : 2: vegetative stage
Stage        : 3: flowering
Stage        : 4: yield formation and ripening
Rain         : Rainfall
ETo          : Reference evapotranspiration
Tmin         : Minimum air temperature
Tavg         : Average air temperature
Tmax         : Maximum air temperature
CO2          : Atmospheric CO2 concentration
