AquaCrop 7.2 (August 2024) - Output created on (date) : 04-12-2024   at (time) : 03:40:10 PM
Simulation run

    RunNr     Day1   Month1    Year1     Rain      ETo       GD     CO2      Irri   Infilt   Runoff    Drain   Upflow        E     E/Ex       Tr      TrW   Tr/Trx    SaltIn   SaltOut    SaltUp  SaltProf     Cycle   SaltStr  FertStr  WeedStr  TempStr   ExpStr   StoStr  BioMass  Brelative   HI    Y(dry)  Y(fresh)    WPet      Bin     Bout     DayN   MonthN    YearN
                                           mm       mm    °C.day    ppm        mm       mm       mm       mm       mm       mm        %       mm       mm        %    ton/ha    ton/ha    ton/ha    ton/ha      days       %        %        %        %        %        %    ton/ha        %       %    ton/ha   ton/ha    kg/m3   ton/ha   ton/ha
        1        1        1     1976      140      171      317   332.03        0      135        5       80        0       59       71       36       33      100     0.000     0.000     0.000     0.000      121        0        0        0       82        0        0     1.068       57     12.0    0.128    0.150     0.13    0.000    0.000        9        5     1976

Légende

RunNr      Number simulation run
Day1       First day of simulation run
Month1     First month of simulation run
Year1      First year of simulation run
Rain       Rainfall
ETo        Reference evapotranspiration
GD         Growing degrees
CO2        Atmospheric CO2 concentration
Irri       Water applied by irrigation OR Net irrigation requirement
Infilt     Infiltrated water in soil profile
Runoff     Water lost by surface runoff
Drain      Water drained out of the soil profile
Upflow     Water moved upward by capillary rise
E          Soil evaporation
E/Ex       Relative soil evaporation (100 E/Ex)
Tr         Total transpiration of crop and weeds
TrW        Crop transpiration in weed infested field
Tr/Trx     Relative total transpiration (100 Tr/Trx)
SaltIn     Salt infiltrated in the soil profile
SaltOut    Salt drained out of the soil profile
SaltUp     Salt moved upward by capillary rise from groundwater table
SaltProf   Salt stored in the soil profile
Cycle      Length of crop cycle: from germination to maturity (or early senescence)
SaltStr    Average soil salinity stress
FertStr    Average soil fertility stress
WeedStr    Average relative cover of weeds
TempStr    Average temperature stress (affecting crop transpiration)
ExpStr     Average leaf expansion stress
StoStr     Average stomatal stress
Biomass    Total above-ground dry biomass
Brelative  Relative biomass (Reference: no water, no soil fertility, no soil salinity stress, no weed infestation)
HI         Harvest Index adjusted for failure of pollination, inadequate photosynthesis and water stress
Y(dry)     Dry crop yield (HI x Biomass)
Y(fresh)   Fresh crop yield
WPet       ET Water Productivity for yield part (kg yield produced per m3 water evapotranspired)
Bin        Total mass of assimilates remobilized from below-ground organs at start of season
Bout       Total mass of assimilates stored in below-ground organs at end of season
DayN       Last day of simulation run
MonthN     Last month of simulation run
YearN      Last year of simulation run
