AquaCrop 7.2 (August 2024) - Output created on (date) : 04-12-2024   at (time) : 03:40:10 PM
Crop development and production

** Run number:  1
   Day Month  Year   DAP Stage    GD       Z     StExp  StSto  StSen StSalt StWeed   CC      CCw     StTr  Kc(Tr)     Trx      Tr       TrW  Tr/Trx   WP    Biomass     HI    Y(dry)  Y(fresh)  Brelative   WPet      Bin     Bout
                                °C-day     m       %      %      %      %      %      %       %       %       -        mm       mm       mm    %     g/m2    ton/ha      %    ton/ha   ton/ha       %      kg/m3   ton/ha   ton/ha
     1     1  1976     1    1     1.8    0.30     -9     -9     -9      0     -9     0.0     0.0      0    -9.00      0.0      0.0      0.0   100    13.6     0.000    -9.9    0.000    0.000       -9      0.00    0.000    0.000
     2     1  1976     2    1     3.0    0.30     -9     -9     -9      0     -9     0.0     0.0      0    -9.00      0.0      0.0      0.0   100    13.6     0.000    -9.9    0.000    0.000       -9      0.00    0.000    0.000
     3     1  1976     3    1     1.7    0.30     -9     -9     -9      0     -9     0.0     0.0      0    -9.00      0.0      0.0      0.0   100    13.6     0.000    -9.9    0.000    0.000       -9      0.00    0.000    0.000
     4     1  1976     4    1     0.0    0.30     -9     -9     -9      0     -9     0.0     0.0      0    -9.00      0.0      0.0      0.0   100    13.6     0.000    -9.9    0.000    0.000       -9      0.00    0.000    0.000
     5     1  1976     5    1     0.5    0.30     -9     -9     -9      0     -9     0.0     0.0      0    -9.00      0.0      0.0      0.0   100    13.6     0.000    -9.9    0.000    0.000       -9      0.00    0.000    0.000
     6     1  1976     6    1     3.1    0.35     -9     -9     -9      0     -9     0.0     0.0      0    -9.00      0.0      0.0      0.0   100    13.6     0.000    -9.9    0.000    0.000       -9      0.00    0.000    0.000
     7     1  1976     7    1     3.4    0.40     -9     -9     -9      0     -9     0.0     0.0      0    -9.00      0.0      0.0      0.0   100    13.6     0.000    -9.9    0.000    0.000       -9      0.00    0.000    0.000
     8     1  1976     8    1     1.1    0.44     -9     -9     -9      0     -9     0.0     0.0      0    -9.00      0.0      0.0      0.0   100    13.6     0.000    -9.9    0.000    0.000       -9      0.00    0.000    0.000
     9     1  1976     9    1     0.8    0.47     -9     -9     -9      0     -9     0.0     0.0      0    -9.00      0.0      0.0      0.0   100    13.6     0.000    -9.9    0.000    0.000       -9      0.00    0.000    0.000
    10     1  1976    10    2     3.1    0.51     -9     -9      0      0      0     1.8     1.8     83     0.03      0.0      0.0      0.0   100    13.6     0.001    -9.9    0.000    0.000      100      0.00    0.000    0.000
    11     1  1976    11    2     3.8    0.54     -9     -9      0      0      0     2.0     2.0     74     0.04      0.0      0.0      0.0   100    13.6     0.002    -9.9    0.000    0.000      100      0.00    0.000    0.000
    12     1  1976    12    2     4.3    0.57     -9      0      0      0      0     2.3     2.3     65     0.04      0.0      0.0      0.0   100    13.6     0.004    -9.9    0.000    0.000      100      0.00    0.000    0.000
    13     1  1976    13    2     2.9    0.60      0     -9      0      0      0     2.5     2.5     85     0.05      0.0      0.0      0.0   100    13.6     0.005    -9.9    0.000    0.000      100      0.00    0.000    0.000
    14     1  1976    14    2     3.4    0.63      0     -9      0      0      0     2.8     2.8     80     0.05      0.0      0.0      0.0   100    13.6     0.007    -9.9    0.000    0.000      100      0.00    0.000    0.000
    15     1  1976    15    2     0.3    0.66      0     -9      0      0      0     3.1     3.1     99     0.06      0.0      0.0      0.0   100    13.6     0.007    -9.9    0.000    0.000      100      0.00    0.000    0.000
    16     1  1976    16    2     0.5    0.68      0     -9      0      0      0     3.5     3.5     99     0.06      0.0      0.0      0.0   100    13.6     0.007    -9.9    0.000    0.000      100      0.00    0.000    0.000
    17     1  1976    17    2     1.4    0.71      0     -9      0      0      0     3.8     3.8     96     0.07      0.0      0.0      0.0   100    13.6     0.007    -9.9    0.000    0.000      100      0.00    0.000    0.000
    18     1  1976    18    2     0.0    0.74      0     -9      0      0      0     4.3     4.3    100    -9.00      0.0      0.0      0.0   100    13.6     0.007    -9.9    0.000    0.000      100      0.00    0.000    0.000
    19     1  1976    19    2     0.0    0.76      0     -9      0      0      0     4.7     4.7    100    -9.00      0.0      0.0      0.0   100    13.6     0.007    -9.9    0.000    0.000      100      0.00    0.000    0.000
    20     1  1976    20    2     1.5    0.78      0     -9      0      0      0     5.3     5.3     96     0.10      0.0      0.0      0.0   100    13.6     0.008    -9.9    0.000    0.000      100      0.00    0.000    0.000
    21     1  1976    21    2     1.6    0.81      0     -9      0      0      0     5.9     5.9     95     0.11      0.0      0.0      0.0   100    13.6     0.008    -9.9    0.000    0.000      100      0.00    0.000    0.000
    22     1  1976    22    2     2.5    0.83      0      0      0      0      0     6.5     6.5     89     0.12      0.0      0.0      0.0   100    13.6     0.010    -9.9    0.000    0.000      100      0.00    0.000    0.000
    23     1  1976    23    2     2.6    0.85      0      0      0      0      0     7.2     7.2     88     0.13      0.0      0.0      0.0   100    13.6     0.012    -9.9    0.000    0.000      100      0.00    0.000    0.000
    24     1  1976    24    2     0.0    0.88      0     -9      0      0      0     7.2     7.2    100    -9.00      0.0      0.0      0.0   100    13.6     0.012    -9.9    0.000    0.000      100      0.00    0.000    0.000
    25     1  1976    25    2     0.0    0.90      0     -9      0      0      0     7.2     7.2    100    -9.00      0.0      0.0      0.0   100    13.6     0.012    -9.9    0.000    0.000      100      0.00    0.000    0.000
    26     1  1976    26    2     0.0    0.92      0     -9      0      0      0     7.2     7.2    100    -9.00      0.0      0.0      0.0   100    13.6     0.012    -9.9    0.000    0.000      100      0.00    0.000    0.000
    27     1  1976    27    2     0.0    0.94      0     -9      0      0      0     7.2     7.2    100    -9.00      0.0      0.0      0.0   100    13.6     0.012    -9.9    0.000    0.000      100      0.00    0.000    0.000
    28     1  1976    28    2     0.0    0.96      0     -9      0      0      0     7.2     7.2    100    -9.00      0.0      0.0      0.0   100    13.6     0.012    -9.9    0.000    0.000      100      0.00    0.000    0.000
    29     1  1976    29    2     0.0    0.98      0     -9      0      0      0     7.2     7.2    100    -9.00      0.0      0.0      0.0   100    13.6     0.012    -9.9    0.000    0.000      100      0.00    0.000    0.000
    30     1  1976    30    2     0.0    1.00      0     -9      0      0      0     7.2     7.2    100    -9.00      0.0      0.0      0.0   100    13.6     0.012    -9.9    0.000    0.000      100      0.00    0.000    0.000
    31     1  1976    31    2     0.0    1.02      0     -9      0      0      0     7.2     7.2    100    -9.00      0.0      0.0      0.0   100    13.6     0.012    -9.9    0.000    0.000      100      0.00    0.000    0.000
     1     2  1976    32    2     0.0    1.04      0     -9      0      0      0     7.2     7.2    100    -9.00      0.0      0.0      0.0   100    13.6     0.012    -9.9    0.000    0.000      100      0.00    0.000    0.000
     2     2  1976    33    2     0.0    1.06      0     -9      0      0      0     7.2     7.2    100    -9.00      0.0      0.0      0.0   100    13.6     0.012    -9.9    0.000    0.000      100      0.00    0.000    0.000
     3     2  1976    34    2     0.0    1.08      0     -9      0      0      0     7.2     7.2    100    -9.00      0.0      0.0      0.0   100    13.6     0.012    -9.9    0.000    0.000      100      0.00    0.000    0.000
     4     2  1976    35    2     0.0    1.10      0     -9      0      0      0     7.2     7.2    100    -9.00      0.0      0.0      0.0   100    13.6     0.012    -9.9    0.000    0.000      100      0.00    0.000    0.000
     5     2  1976    36    2     0.0    1.12      0     -9      0      0      0     7.2     7.2    100    -9.00      0.0      0.0      0.0   100    13.6     0.012    -9.9    0.000    0.000      100      0.00    0.000    0.000
     6     2  1976    37    2     0.0    1.14      0     -9      0      0      0     7.2     7.2    100    -9.00      0.0      0.0      0.0   100    13.6     0.012    -9.9    0.000    0.000      100      0.00    0.000    0.000
     7     2  1976    38    2     0.0    1.16      0     -9      0      0      0     7.2     7.2    100    -9.00      0.0      0.0      0.0   100    13.6     0.012    -9.9    0.000    0.000      100      0.00    0.000    0.000
     8     2  1976    39    2     0.0    1.18      0     -9      0      0      0     7.2     7.2    100    -9.00      0.0      0.0      0.0   100    13.6     0.012    -9.9    0.000    0.000      100      0.00    0.000    0.000
     9     2  1976    40    2     0.0    1.20      0     -9      0      0      0     7.2     7.2    100    -9.00      0.0      0.0      0.0   100    13.6     0.012    -9.9    0.000    0.000      100      0.00    0.000    0.000
    10     2  1976    41    2     0.0    1.21      0     -9      0      0      0     7.2     7.2    100    -9.00      0.0      0.0      0.0   100    13.6     0.012    -9.9    0.000    0.000      100      0.00    0.000    0.000
    11     2  1976    42    2     0.0    1.23      0     -9      0      0      0     7.2     7.2    100    -9.00      0.0      0.0      0.0   100    13.6     0.012    -9.9    0.000    0.000      100      0.00    0.000    0.000
    12     2  1976    43    2     0.0    1.25      0     -9      0      0      0     7.2     7.2    100    -9.00      0.0      0.0      0.0   100    13.6     0.012    -9.9    0.000    0.000      100      0.00    0.000    0.000
    13     2  1976    44    2     0.0    1.27      0     -9      0      0      0     7.2     7.2    100    -9.00      0.0      0.0      0.0   100    13.6     0.012    -9.9    0.000    0.000      100      0.00    0.000    0.000
    14     2  1976    45    2     0.0    1.29      0     -9      0      0      0     7.2     7.2    100    -9.00      0.0      0.0      0.0   100    13.6     0.012    -9.9    0.000    0.000      100      0.00    0.000    0.000
    15     2  1976    46    2     0.0    1.30      0     -9      0      0      0     7.2     7.2    100    -9.00      0.0      0.0      0.0   100    13.6     0.012    -9.9    0.000    0.000      100      0.00    0.000    0.000
    16     2  1976    47    2     0.0    1.32      0     -9      0      0      0     7.2     7.2    100    -9.00      0.0      0.0      0.0   100    13.6     0.012    -9.9    0.000    0.000      100      0.00    0.000    0.000
    17     2  1976    48    2     0.0    1.34      0     -9      0      0      0     7.2     7.2    100    -9.00      0.0      0.0      0.0   100    13.6     0.012    -9.9    0.000    0.000      100      0.00    0.000    0.000
    18     2  1976    49    2     0.0    1.35      0     -9      0      0      0     7.2     7.2    100    -9.00      0.0      0.0      0.0   100    13.6     0.012    -9.9    0.000    0.000      100      0.00    0.000    0.000
    19     2  1976    50    2     1.6    1.37      0      0      0      0      0     8.1     8.1     95     0.15      0.0      0.0      0.0   100    13.6     0.013    -9.9    0.000    0.000       70      0.00    0.000    0.000
    20     2  1976    51    2     4.5    1.39      0      0      0      0      0     9.0     9.0     61     0.16      0.1      0.1      0.1   100    13.6     0.022    -9.9    0.000    0.000       31      0.00    0.000    0.000
    21     2  1976    52    2     4.8    1.40      0      0      0      0      0     9.9     9.9     55     0.18      0.1      0.1      0.1   100    13.6     0.033    -9.9    0.000    0.000       25      0.00    0.000    0.000
    22     2  1976    53    2     4.9    1.42      0      0      0      0      0    11.1    11.1     53     0.20      0.1      0.1      0.1   100    13.6     0.045    -9.9    0.000    0.000       23      0.00    0.000    0.000
    23     2  1976    54    2     4.4    1.44      0      0      0      0      0    12.3    12.3     63     0.22      0.1      0.1      0.1   100    13.6     0.056    -9.9    0.000    0.000       23      0.00    0.000    0.000
    24     2  1976    55    2     3.5    1.45      0      0      0      0      0    13.7    13.7     78     0.24      0.0      0.0      0.0   100    13.6     0.063    -9.9    0.000    0.000       23      0.00    0.000    0.000
    25     2  1976    56    2     3.7    1.47      0      0      0      0      0    15.2    15.2     75     0.26      0.0      0.0      0.0   100    13.6     0.073    -9.9    0.000    0.000       23      0.00    0.000    0.000
    26     2  1976    57    2     3.1    1.49      0      0      0      0      0    16.9    16.9     82     0.29      0.0      0.0      0.0   100    13.6     0.080    -9.9    0.000    0.000       23      0.00    0.000    0.000
    27     2  1976    58    2     1.8    1.50      0      0      0      0      0    18.8    18.8     94     0.32      0.0      0.0      0.0   100    13.6     0.082    -9.9    0.000    0.000       24      0.00    0.000    0.000
    28     2  1976    59    2     3.7    1.52      0      0      0      0      0    20.8    20.8     75     0.35      0.1      0.1      0.1   100    13.6     0.094    -9.9    0.000    0.000       24      0.00    0.000    0.000
    29     2  1976    60    2     4.1    1.53      0      0      0      0      0    23.2    23.2     69     0.38      0.2      0.2      0.2   100    13.6     0.110    -9.9    0.000    0.000       26      0.00    0.000    0.000
     1     3  1976    61    2     1.0    1.55      0      0      0      0      0    25.8    25.8     98     0.42      0.0      0.0      0.0   100    13.6     0.111    -9.9    0.000    0.000       26      0.00    0.000    0.000
     2     3  1976    62    2     0.0    1.57      0     -9      0      0      0    25.8    25.8    100    -9.00      0.0      0.0      0.0   100    13.6     0.111    -9.9    0.000    0.000       26      0.00    0.000    0.000
     3     3  1976    63    2     1.0    1.58      0      0      0      0      0    28.6    28.6     97     0.46      0.0      0.0      0.0   100    13.6     0.113    -9.9    0.000    0.000       26      0.00    0.000    0.000
     4     3  1976    64    2     1.3    1.60      0      0      0      0      0    31.8    31.8     96     0.50      0.0      0.0      0.0   100    13.6     0.116    -9.9    0.000    0.000       26      0.00    0.000    0.000
     5     3  1976    65    2     0.0    1.61      0     -9      0      0      0    31.8    31.8    100    -9.00      0.0      0.0      0.0   100    13.6     0.116    -9.9    0.000    0.000       26      0.00    0.000    0.000
     6     3  1976    66    2     0.0    1.63      0     -9      0      0      0    31.8    31.8    100    -9.00      0.0      0.0      0.0   100    13.6     0.116    -9.9    0.000    0.000       26      0.00    0.000    0.000
     7     3  1976    67    2     0.0    1.64      0     -9      0      0      0    31.8    31.8    100    -9.00      0.0      0.0      0.0   100    13.6     0.116    -9.9    0.000    0.000       26      0.00    0.000    0.000
     8     3  1976    68    2     0.0    1.66      0     -9      0      0      0    31.8    31.8    100    -9.00      0.0      0.0      0.0   100    13.6     0.116    -9.9    0.000    0.000       26      0.00    0.000    0.000
     9     3  1976    69    2     0.0    1.67      0     -9      0      0      0    31.8    31.8    100    -9.00      0.0      0.0      0.0   100    13.6     0.116    -9.9    0.000    0.000       26      0.00    0.000    0.000
    10     3  1976    70    2     0.0    1.69      0     -9      0      0      0    31.8    31.8    100    -9.00      0.0      0.0      0.0   100    13.6     0.116    -9.9    0.000    0.000       26      0.00    0.000    0.000
    11     3  1976    71    2     0.0    1.70      0     -9      0      0      0    31.8    31.8    100    -9.00      0.0      0.0      0.0   100    13.6     0.116    -9.9    0.000    0.000       26      0.00    0.000    0.000
    12     3  1976    72    3     0.0    1.72      0     -9      0      0      0    31.8    31.8    100    -9.00      0.0      0.0      0.0   100    13.6     0.116    -9.9    0.000    0.000       26      0.00    0.000    0.000
    13     3  1976    73    3     0.8    1.73      0      0      0      0      0    35.4    35.4     98     0.55      0.0      0.0      0.0   100    13.6     0.117    -9.9    0.000    0.000       26      0.00    0.000    0.000
    14     3  1976    74    3     2.3    1.75      0      0      0      0      0    39.3    39.3     91     0.59      0.1      0.1      0.1   100    13.6     0.124    -9.9    0.000    0.000       27      0.00    0.000    0.000
    15     3  1976    75    3     1.7    1.76      0      0      0      0      0    43.3    43.3     95     0.64      0.0      0.0      0.0   100    12.6     0.128     0.2    0.000    0.000       28      0.00    0.000    0.000
    16     3  1976    76    3     2.0    1.78      0      0      0      0      0    46.8    46.8     93     0.68      0.1      0.1      0.1   100    12.3     0.134     0.3    0.000    0.001       28      0.00    0.000    0.000
    17     3  1976    77    3     3.3    1.79      0      0      0      0      0    50.0    50.0     81     0.71      0.1      0.1      0.1   100    12.0     0.151     1.4    0.002    0.002       30      0.01    0.000    0.000
    18     3  1976    78    3     3.1    1.80      0      0      0      0      0    52.7    52.7     83     0.74      0.1      0.1      0.1   100    11.7     0.165     2.1    0.003    0.004       32      0.01    0.000    0.000
    19     3  1976    79    3     0.0    1.82      0     -9      0      0      0    52.7    52.7    100    -9.00      0.0      0.0      0.0   100    11.3     0.165     2.4    0.004    0.005       32      0.01    0.000    0.000
    20     3  1976    80    3     0.0    1.83      0     -9      0      0      0    52.7    52.7    100    -9.00      0.0      0.0      0.0   100    11.0     0.165     2.7    0.004    0.005       32      0.01    0.000    0.000
    21     3  1976    81    3     0.0    1.85      0     -9      0      0      0    52.7    52.7    100    -9.00      0.0      0.0      0.0   100    10.7     0.165     3.0    0.005    0.006       32      0.01    0.000    0.000
    22     3  1976    82    3     0.0    1.86      0     -9      0      0      0    52.7    52.7    100    -9.00      0.0      0.0      0.0   100    10.4     0.165     3.1    0.005    0.006       32      0.01    0.000    0.000
    23     3  1976    83    3     0.0    1.88      0     -9      0      0      0    52.7    52.7    100    -9.00      0.0      0.0      0.0   100    10.0     0.165     3.1    0.005    0.006       32      0.01    0.000    0.000
    24     3  1976    84    3     0.0    1.89      0     -9      0      0      0    52.7    52.7    100    -9.00      0.0      0.0      0.0   100     9.7     0.165     3.1    0.005    0.006       32      0.01    0.000    0.000
    25     3  1976    85    3     0.0    1.90      0     -9      0      0      0    53.2    53.2    100    -9.00      0.0      0.0      0.0   100     9.4     0.165     3.1    0.005    0.006       32      0.01    0.000    0.000
    26     3  1976    86    3     2.8    1.92     -9      0      0      0      0    53.1    53.1     86     0.71      0.1      0.1      0.1   100     9.1     0.174     4.3    0.008    0.009       32      0.02    0.000    0.000
    27     3  1976    87    3     0.3    1.93     -9     -9      0      0      0    53.1    53.1     99     0.71      0.0      0.0      0.0   100     8.8     0.174     4.3    0.008    0.009       32      0.02    0.000    0.000
    28     3  1976    88    3     2.3    1.95     -9      0      0      0      0    53.1    53.1     91     0.71      0.1      0.1      0.1   100     8.5     0.180     5.1    0.009    0.011       33      0.02    0.000    0.000
    29     3  1976    89    3     3.2    1.96     -9      0      0      0      0    53.1    53.1     82     0.70      0.2      0.2      0.2   100     8.1     0.190     5.2    0.010    0.012       34      0.02    0.000    0.000
    30     3  1976    90    3     4.2    1.97     -9      0      0      0      0    53.1    53.1     66     0.70      0.4      0.4      0.4   100     8.1     0.209     6.5    0.014    0.016       35      0.03    0.000    0.000
    31     3  1976    91    3     4.3    1.99     -9      0      0      0      0    53.1    53.1     65     0.70      0.3      0.3      0.3   100     8.1     0.229     7.4    0.017    0.020       37      0.04    0.000    0.000
     1     4  1976    92    3     7.2    2.00     -9      0      0      0      0    53.1    53.1     16     0.70      1.4      1.4      1.4   100     8.1     0.277     8.9    0.025    0.029       40      0.05    0.000    0.000
     2     4  1976    93    3     4.2    2.00     -9      0      0      0      0    53.1    53.1     66     0.70      0.3      0.3      0.3   100     8.1     0.296    10.5    0.031    0.037       41      0.07    0.000    0.000
     3     4  1976    94    3     2.1    2.00     -9      0      0      0      0    53.1    53.1     92     0.70      0.1      0.1      0.1   100     8.1     0.301    10.8    0.032    0.038       41      0.07    0.000    0.000
     4     4  1976    95    3     1.7    2.00     -9      0      0      0      0    53.1    53.1     95     0.70      0.0      0.0      0.0   100     8.1     0.304    10.9    0.033    0.039       41      0.07    0.000    0.000
     5     4  1976    96    3     3.2    2.00     -9      0      0      0      0    53.1    53.1     82     0.70      0.3      0.3      0.3   100     8.1     0.315    10.9    0.034    0.041       42      0.07    0.000    0.000
     6     4  1976    97    3     3.8    2.00     -9      0      0      0      0    53.1    53.1     74     0.70      0.2      0.2      0.2   100     8.1     0.329    11.6    0.038    0.045       42      0.08    0.000    0.000
     7     4  1976    98    3     2.3    2.00     -9      0      0      0      0    53.1    53.1     91     0.70      0.1      0.1      0.1   100     8.1     0.335    12.0    0.040    0.047       43      0.08    0.000    0.000
     8     4  1976    99    3     0.8    2.00     -9      0      0      0      0    53.2    53.2     98     0.70      0.0      0.0      0.0   100     8.1     0.336    12.0    0.040    0.047       43      0.08    0.000    0.000
     9     4  1976   100    3     0.0    2.00     -9     -9      0      0      0    53.2    53.2    100    -9.00      0.0      0.0      0.0   100     8.1     0.336    12.0    0.040    0.047       43      0.08    0.000    0.000
    10     4  1976   101    4     2.3    2.00     -9      0      0      0      0    53.2    53.2     91     0.69      0.2      0.2      0.2   100     8.1     0.341    12.0    0.041    0.048       43      0.08    0.000    0.000
    11     4  1976   102    4     5.0    2.00     -9      0      0      0      0    53.2    53.2     52     0.69      1.1      1.1      1.1   100     8.1     0.368    12.0    0.044    0.052       44      0.08    0.000    0.000
    12     4  1976   103    4     5.0    2.00     -9      0      0      0      0    53.2    53.2     51     0.69      1.0      1.0      1.0   100     8.1     0.396    12.0    0.047    0.056       45      0.08    0.000    0.000
    13     4  1976   104    4     4.8    2.00     -9      0      0      0      0    53.2    53.2     56     0.69      0.9      0.9      0.9   100     8.1     0.420    12.0    0.050    0.059       46      0.09    0.000    0.000
    14     4  1976   105    4     2.8    2.00     -9      0     -9      0      0    53.1    53.1     86     0.69      0.1      0.1      0.1   100     8.1     0.428    12.0    0.051    0.060       46      0.09    0.000    0.000
    15     4  1976   106    4     6.4    2.00     -9      0     -9      0      0    53.0    53.0     25     0.69      1.3      1.3      1.3   100     8.1     0.470    12.0    0.056    0.066       48      0.09    0.000    0.000
    16     4  1976   107    4     4.5    2.00     -9      0     -9      0      0    52.9    52.9     61     0.68      0.4      0.4      0.4   100     8.1     0.492    12.0    0.059    0.069       48      0.10    0.000    0.000
    17     4  1976   108    4     5.1    2.00     -9      0     -9      0      0    52.9    52.9     50     0.68      0.7      0.7      0.7   100     8.1     0.520    12.0    0.062    0.073       49      0.10    0.000    0.000
    18     4  1976   109    4     7.4    2.00     -9      0     -9      0      0    52.8    52.8     14     0.68      1.9      1.9      1.9   100     8.1     0.567    12.0    0.068    0.080       50      0.10    0.000    0.000
    19     4  1976   110    4     9.8    2.00     -9      0     -9      0      0    52.7    52.7      2     0.67      2.3      2.3      2.3   100     8.1     0.620    12.0    0.074    0.087       51      0.11    0.000    0.000
    20     4  1976   111    4     9.5    2.00     -9      0     -9      0      0    52.6    52.6      3     0.67      2.5      2.5      2.5   100     8.1     0.673    12.0    0.081    0.095       52      0.11    0.000    0.000
    21     4  1976   112    4     2.9    2.00     -9      0     -9      0      0    52.5    52.5     85     0.67      0.2      0.2      0.2   100     8.1     0.681    12.0    0.081    0.096       53      0.11    0.000    0.000
    22     4  1976   113    4     2.6    2.00     -9      0     -9      0      0    52.4    52.4     88     0.66      0.2      0.2      0.2   100     8.1     0.688    12.0    0.082    0.097       53      0.11    0.000    0.000
    23     4  1976   114    4     0.0    2.00     -9     -9     -9      0      0    52.3    52.3    100    -9.00      0.0      0.0      0.0   100     8.1     0.688    12.0    0.082    0.097       53      0.11    0.000    0.000
    24     4  1976   115    4     0.1    2.00     -9     -9     -9      0      0    52.2    52.2    100    -9.00      0.0      0.0      0.0   100     8.1     0.688    12.0    0.082    0.097       53      0.11    0.000    0.000
    25     4  1976   116    4     3.0    2.00     -9      0     -9      0      0    52.1    52.1     84     0.65      0.2      0.2      0.2   100     8.1     0.696    12.0    0.083    0.098       53      0.11    0.000    0.000
    26     4  1976   117    4     4.8    2.00     -9      0     -9      0      0    51.9    51.9     55     0.65      1.0      1.0      1.0   100     8.1     0.720    12.0    0.086    0.101       53      0.12    0.000    0.000
    27     4  1976   118    4     2.3    2.00     -9      0     -9      0      0    51.8    51.8     91     0.65      0.1      0.1      0.1   100     8.1     0.725    12.0    0.087    0.102       53      0.12    0.000    0.000
    28     4  1976   119    4     0.0    2.00     -9     -9     -9      0      0    51.7    51.7    100    -9.00      0.0      0.0      0.0   100     8.1     0.725    12.0    0.087    0.102       53      0.12    0.000    0.000
    29     4  1976   120    4     0.1    2.00     -9     -9     -9      0      0    51.6    51.6    100    -9.00      0.0      0.0      0.0   100     8.1     0.725    12.0    0.087    0.102       53      0.12    0.000    0.000
    30     4  1976   121    4     1.7    2.00     -9      0     -9      0      0    51.5    51.5     95     0.64      0.1      0.1      0.1   100     8.1     0.728    12.0    0.087    0.102       53      0.12    0.000    0.000
     1     5  1976   122    4     3.9    2.00     -9      0     -9      0      0    51.3    51.3     71     0.63      0.5      0.5      0.5   100     8.1     0.743    12.0    0.089    0.105       54      0.12    0.000    0.000
     2     5  1976   123    4     4.5    2.00     -9      0     -9      0      0    51.2    51.2     61     0.63      0.5      0.5      0.5   100     8.1     0.763    12.0    0.091    0.107       54      0.12    0.000    0.000
     3     5  1976   124    4     5.1    2.00     -9      0     -9      0      0    51.1    51.1     49     0.62      0.4      0.4      0.4   100     8.1     0.789    12.0    0.094    0.111       54      0.12    0.000    0.000
     4     5  1976   125    4     5.9    2.00     -9      0     -9      0      0    50.9    50.9     33     0.62      1.0      1.0      1.0   100     8.1     0.823    12.0    0.098    0.116       55      0.12    0.000    0.000
     5     5  1976   126    4     9.3    2.00     -9      0     -9      0      0    50.8    50.8      4     0.62      2.2      2.2      2.2   100     8.1     0.871    12.0    0.104    0.123       55      0.13    0.000    0.000
     6     5  1976   127    4    14.5    2.00     -9      0     -9      0      0    50.6    50.6      0     0.61      3.1      3.1      3.1   100     8.1     0.921    12.0    0.110    0.130       56      0.13    0.000    0.000
     7     5  1976   128    4    17.2    2.00     -9      0     -9      0      0    50.5    50.5      0     0.61      3.4      3.4      3.4   100     8.1     0.970    12.0    0.116    0.137       56      0.13    0.000    0.000
     8     5  1976   129    4    17.1    2.00     -9      0     -9      0      0    50.3    50.3      0     0.60      3.0      3.0      3.0   100     8.1     1.019    12.0    0.122    0.143       57      0.13    0.000    0.000
     9     5  1976   130    4    17.6    2.00     -9      0     -9      0      0    50.1    50.1      0     0.60      3.4      3.4      3.4   100     8.1     1.068    12.0    0.128    0.150       57      0.13    0.000    0.000

Legend

DAP          : Days after planting
Stage        : 0: before/after planting
Stage        : 1: emergence or transplant recovery
Stage        : 2: vegetative stage
Stage        : 3: flowering
Stage        : 4: yield formation and ripening
GD           : Growing degrees
Z            : Effective rooting depth
StExp        : Percent water stress reducing leaf expansion
StSto        : Percent water stress inducing stomatal closure
StSen        : Percent water stress triggering early canopy senescence
StSalt       : Percent salinity stress
StWeed       : Relative cover of weeds
CC           : Green total Canopy Cover of crop and weeds
CCw          : Green crop Canopy Cover in weed infested field
StTr         : Percent temperature stress affecting crop transpiration
Kc(Tr)       : Crop coefficient for transpiration
Trx          : Maximum total transpiration of crop and weeds
Tr           : Total transpiration of crop and weeds
TrW          : Crop transpiration in weed infested field
Tr/Trx       : Relative total transpiration of crop and weeds (100 Tr/Trx)
WP           : Crop water productivity adjusted for CO2, soil fertility and products synthesized
Biomass      : Total above-ground dry biomass
HI           : Harvest Index adjusted for failure of pollination, inadequate photosynthesis and water stress
Y(dry)       : Dry crop yield (HI x Biomass)
Y(fresh)     : Fresh crop yield
Brelative    : Relative biomass (Reference: no water, no soil fertility, no soil salinity stress, no weed infestation)
WPet         : ET Water productivity for yield part (kg yield produced per m3 water evapotranspired)
Bin          : Daily mass of assimilates remobilized from below-ground organs at start of season
Bout         : Daily mass of assimilates stored in below-ground organs at end of season
