AquaCrop 7.2 (August 2024) - Output created on (date) : 26/08/2024   at (time) : 15:49:54
Net Irrigation Requirement

** Run number:  1
   Day Month  Year   DAP Stage        E        Trx        ET      Rain      Inet
                                      mm        mm        mm        mm        mm

Legend

DAP          : Days after planting
Stage        : 0: before/after planting
Stage        : 1: emergence or transplant recovery
Stage        : 2: vegetative stage
Stage        : 3: flowering
Stage        : 4: yield formation and ripening
E            : Soil evaporation
Trx          : Maximum crop transpiration
ET           : Evapotranspiration (E+Trx)
Rain         : Rainfall
Inet         : Net irrigation requirement
