AquaCrop 7.2 (August 2024) - Output created on (date) : 04-12-2024   at (time) : 03:56:11 PM
Soil Water Content (WC) at various depths (at center of compartments)

** Run number:  1
                 at depth (m):      0.05        0.15        0.25        0.35        0.45        0.55        0.65        0.75        0.85        0.95        1.05        1.15
   Day Month  Year   DAP Stage   WC1(vol%)   WC2(vol%)   WC3(vol%)   WC4(vol%)   WC5(vol%)   WC6(vol%)   WC7(vol%)   WC8(vol%)   WC9(vol%)  WC10(vol%)  WC11(vol%)  WC12(vol%)
    22     1  1993     1    1       17.9        22.0        22.0        22.0        22.0        22.0        22.0        22.0        22.0        22.0        22.0        22.0
    23     1  1993     2    1       15.6        22.0        22.0        22.0        22.0        22.0        22.0        22.0        22.0        22.0        22.0        22.0
    24     1  1993     3    1       13.9        22.0        22.0        22.0        22.0        22.0        22.0        22.0        22.0        22.0        22.0        22.0
    25     1  1993     4    1       12.7        22.0        22.0        22.0        22.0        22.0        22.0        22.0        22.0        22.0        22.0        22.0
    26     1  1993     5    2       11.6        22.0        22.0        22.0        22.0        22.0        22.0        22.0        22.0        22.0        22.0        22.0
    27     1  1993     6    2       10.6        22.0        22.0        22.0        22.0        22.0        22.0        22.0        22.0        22.0        22.0        22.0
    28     1  1993     7    2        9.7        21.9        22.0        22.0        22.0        22.0        22.0        22.0        22.0        22.0        22.0        22.0
    29     1  1993     8    2        9.2        21.8        22.0        22.0        22.0        22.0        22.0        22.0        22.0        22.0        22.0        22.0
    30     1  1993     9    2        8.6        21.7        22.0        22.0        22.0        22.0        22.0        22.0        22.0        22.0        22.0        22.0
    31     1  1993    10    2        8.0        21.6        22.0        22.0        22.0        22.0        22.0        22.0        22.0        22.0        22.0        22.0
     1     2  1993    11    2        7.6        21.4        22.0        22.0        22.0        22.0        22.0        22.0        22.0        22.0        22.0        22.0
     2     2  1993    12    2        7.2        21.3        22.0        22.0        22.0        22.0        22.0        22.0        22.0        22.0        22.0        22.0
     3     2  1993    13    2        6.8        21.1        22.0        22.0        22.0        22.0        22.0        22.0        22.0        22.0        22.0        22.0
     4     2  1993    14    2        6.4        20.9        22.0        22.0        22.0        22.0        22.0        22.0        22.0        22.0        22.0        22.0
     5     2  1993    15    2        6.0        20.7        22.0        22.0        22.0        22.0        22.0        22.0        22.0        22.0        22.0        22.0
     6     2  1993    16    2        5.7        20.4        22.0        22.0        22.0        22.0        22.0        22.0        22.0        22.0        22.0        22.0
     7     2  1993    17    2        5.3        20.1        22.0        22.0        22.0        22.0        22.0        22.0        22.0        22.0        22.0        22.0
     8     2  1993    18    2        5.0        19.8        22.0        22.0        22.0        22.0        22.0        22.0        22.0        22.0        22.0        22.0
     9     2  1993    19    2        5.0        19.2        22.0        22.0        22.0        22.0        22.0        22.0        22.0        22.0        22.0        22.0
    10     2  1993    20    2        5.0        18.6        22.0        22.0        22.0        22.0        22.0        22.0        22.0        22.0        22.0        22.0
    11     2  1993    21    2        5.0        17.9        22.0        22.0        22.0        22.0        22.0        22.0        22.0        22.0        22.0        22.0
    12     2  1993    22    2        5.0        17.3        22.0        22.0        22.0        22.0        22.0        22.0        22.0        22.0        22.0        22.0
    13     2  1993    23    2        5.0        16.5        22.0        22.0        22.0        22.0        22.0        22.0        22.0        22.0        22.0        22.0
    14     2  1993    24    2        5.0        15.7        22.0        22.0        22.0        22.0        22.0        22.0        22.0        22.0        22.0        22.0
    15     2  1993    25    2        5.0        14.9        22.0        22.0        22.0        22.0        22.0        22.0        22.0        22.0        22.0        22.0
    16     2  1993    26    2        5.0        14.0        22.0        22.0        22.0        22.0        22.0        22.0        22.0        22.0        22.0        22.0
    17     2  1993    27    2        5.0        12.9        22.0        22.0        22.0        22.0        22.0        22.0        22.0        22.0        22.0        22.0
    18     2  1993    28    2        5.0        11.9        22.0        22.0        22.0        22.0        22.0        22.0        22.0        22.0        22.0        22.0
    19     2  1993    29    2        5.0        10.8        22.0        22.0        22.0        22.0        22.0        22.0        22.0        22.0        22.0        22.0
    20     2  1993    30    2        5.0         9.6        22.0        22.0        22.0        22.0        22.0        22.0        22.0        22.0        22.0        22.0
    21     2  1993    31    2        5.0         9.5        20.8        22.0        22.0        22.0        22.0        22.0        22.0        22.0        22.0        22.0
    22     2  1993    32    2        5.0         9.4        19.5        22.0        22.0        22.0        22.0        22.0        22.0        22.0        22.0        22.0
    23     2  1993    33    2        5.0         9.3        18.1        22.0        22.0        22.0        22.0        22.0        22.0        22.0        22.0        22.0
    24     2  1993    34    2        5.0         9.3        16.6        22.0        22.0        22.0        22.0        22.0        22.0        22.0        22.0        22.0
    25     2  1993    35    3        5.0         9.2        14.9        22.0        22.0        22.0        22.0        22.0        22.0        22.0        22.0        22.0
    26     2  1993    36    3        5.0         9.1        12.7        22.0        22.0        22.0        22.0        22.0        22.0        22.0        22.0        22.0
    27     2  1993    37    3        5.0         9.0        10.3        22.0        22.0        22.0        22.0        22.0        22.0        22.0        22.0        22.0
    28     2  1993    38    3        5.0         9.0         9.7        20.0        22.0        22.0        22.0        22.0        22.0        22.0        22.0        22.0
     1     3  1993    39    3        5.0         8.9         9.7        17.4        22.0        22.0        22.0        22.0        22.0        22.0        22.0        22.0
     2     3  1993    40    3        5.0         8.9         9.7        14.6        22.0        22.0        22.0        22.0        22.0        22.0        22.0        22.0
     3     3  1993    41    3        5.0         8.8         9.7        11.9        22.0        22.0        22.0        22.0        22.0        22.0        22.0        22.0
     4     3  1993    42    3        5.0         8.8         9.7         9.8        21.4        22.0        22.0        22.0        22.0        22.0        22.0        22.0
     5     3  1993    43    3       34.6        34.9         9.7         9.8        21.4        22.0        22.0        22.0        22.0        22.0        22.0        22.0
     6     3  1993    44    3       16.4        22.4        22.4        21.8        21.4        22.0        22.0        22.0        22.0        22.0        22.0        22.0
     7     3  1993    45    3       10.7        22.0        22.0        22.0        21.9        22.0        22.0        22.0        22.0        22.0        22.0        22.0
     8     3  1993    46    3       10.0        18.5        22.0        22.0        22.0        22.0        22.0        22.0        22.0        22.0        22.0        22.0
     9     3  1993    47    3        9.6        14.6        22.0        22.0        22.0        22.0        22.0        22.0        22.0        22.0        22.0        22.0
    10     3  1993    48    3        9.3        10.3        21.9        22.0        22.0        22.0        22.0        22.0        22.0        22.0        22.0        22.0
    11     3  1993    49    3        9.2         9.6        17.8        22.0        22.0        22.0        22.0        22.0        22.0        22.0        22.0        22.0
    12     3  1993    50    3        9.1         9.6        13.7        21.7        22.0        22.0        22.0        22.0        22.0        22.0        22.0        22.0
    13     3  1993    51    3        9.1         9.6        10.0        21.2        22.0        22.0        22.0        22.0        22.0        22.0        22.0        22.0
    14     3  1993    52    3        9.0         9.6        10.0        17.5        21.1        22.0        22.0        22.0        22.0        22.0        22.0        22.0
    15     3  1993    53    3        8.9         9.6        10.0        13.8        20.2        22.0        22.0        22.0        22.0        22.0        22.0        22.0
    16     3  1993    54    3        8.9         9.6        10.0        10.5        20.1        22.0        22.0        22.0        22.0        22.0        22.0        22.0
    17     3  1993    55    3        8.8         9.6        10.0         9.6        16.9        22.0        22.0        22.0        22.0        22.0        22.0        22.0
    18     3  1993    56    3       16.4         9.6        10.0         9.6        16.9        22.0        22.0        22.0        22.0        22.0        22.0        22.0
    19     3  1993    57    3       11.4         9.6        10.0         9.6        16.9        22.0        22.0        22.0        22.0        22.0        22.0        22.0
    20     3  1993    58    3        9.6         9.6        10.0         9.6        13.7        21.8        22.0        22.0        22.0        22.0        22.0        22.0
    21     3  1993    59    3       35.9        41.0        10.2         9.6        13.7        21.8        22.0        22.0        22.0        22.0        22.0        22.0
    22     3  1993    60    3       17.3        22.0        22.2        22.4        21.5        21.8        22.0        22.0        22.0        22.0        22.0        22.0
    23     3  1993    61    3       11.6        22.0        22.0        22.0        22.0        21.8        22.0        22.0        22.0        22.0        22.0        22.0
    24     3  1993    62    3        9.2        19.3        22.0        22.0        22.0        21.9        22.0        22.0        22.0        22.0        22.0        22.0
    25     3  1993    63    3        8.3        15.4        22.0        22.0        22.0        21.9        22.0        22.0        22.0        22.0        22.0        22.0
    26     3  1993    64    3        7.2        10.8        21.3        22.0        22.0        21.9        22.0        22.0        22.0        22.0        22.0        22.0
    27     3  1993    65    3        6.2         9.1        18.5        22.0        22.0        21.9        22.0        22.0        22.0        22.0        22.0        22.0
    28     3  1993    66    3        6.2         9.1        14.3        20.9        22.0        21.9        22.0        22.0        22.0        22.0        22.0        22.0
    29     3  1993    67    3        6.2         9.1        10.5        19.4        22.0        21.9        22.0        22.0        22.0        22.0        22.0        22.0
    30     3  1993    68    3        6.1         9.1         9.6        15.7        21.2        21.9        22.0        22.0        22.0        22.0        22.0        22.0
    31     3  1993    69    3        6.1         9.1         9.6        12.0        19.2        21.9        22.0        22.0        22.0        22.0        22.0        22.0
     1     4  1993    70    3       35.0        35.2         9.6        12.0        19.2        21.9        22.0        22.0        22.0        22.0        22.0        22.0
     2     4  1993    71    3       16.2        22.4        22.4        22.2        21.5        21.9        22.0        22.0        22.0        22.0        22.0        22.0
     3     4  1993    72    3       10.2        21.6        22.0        22.0        22.0        22.0        22.0        22.0        22.0        22.0        22.0        22.0
     4     4  1993    73    3        9.3        16.9        21.7        22.0        22.0        22.0        22.0        22.0        22.0        22.0        22.0        22.0
     5     4  1993    74    3        8.3        12.2        21.2        22.0        22.0        22.0        22.0        22.0        22.0        22.0        22.0        22.0
     6     4  1993    75    3        7.3         9.0        18.7        22.0        22.0        22.0        22.0        22.0        22.0        22.0        22.0        22.0
     7     4  1993    76    3        6.4         9.0        14.5        20.6        22.0        22.0        22.0        22.0        22.0        22.0        22.0        22.0
     8     4  1993    77    4        6.2         9.0        10.6        18.6        22.0        22.0        22.0        22.0        22.0        22.0        22.0        22.0
     9     4  1993    78    4        6.2         9.0         9.5        14.9        21.1        22.0        22.0        22.0        22.0        22.0        22.0        22.0
    10     4  1993    79    4        6.2         9.0         9.5        11.4        19.1        22.0        22.0        22.0        22.0        22.0        22.0        22.0
    11     4  1993    80    4        9.7         9.0         9.5         9.3        18.4        22.0        22.0        22.0        22.0        22.0        22.0        22.0
    12     4  1993    81    4        8.8         9.0         9.5         9.3        15.2        20.2        22.0        22.0        22.0        22.0        22.0        22.0
    13     4  1993    82    4       34.9        40.6        11.2         9.3        15.2        20.2        22.0        22.0        22.0        22.0        22.0        22.0
    14     4  1993    83    4       16.3        21.6        22.3        22.4        22.0        20.2        22.0        22.0        22.0        22.0        22.0        22.0
    15     4  1993    84    4       11.0        21.6        22.0        22.0        22.0        20.8        22.0        22.0        22.0        22.0        22.0        22.0
    16     4  1993    85    4       10.0        16.9        20.8        22.0        22.0        20.9        22.0        22.0        22.0        22.0        22.0        22.0
    17     4  1993    86    4        9.2        12.3        20.8        22.0        22.0        20.9        22.0        22.0        22.0        22.0        22.0        22.0
    18     4  1993    87    4        8.4         8.9        19.8        22.0        22.0        20.9        22.0        22.0        22.0        22.0        22.0        22.0
    19     4  1993    88    4        7.5         8.9        15.6        21.1        22.0        20.9        22.0        22.0        22.0        22.0        22.0        22.0
    20     4  1993    89    4        6.7         8.9        11.5        20.2        22.0        20.9        22.0        22.0        22.0        22.0        22.0        22.0
    21     4  1993    90    4        6.7         8.9         9.2        17.6        22.0        20.9        22.0        22.0        22.0        22.0        22.0        22.0
    22     4  1993    91    4        6.7         8.9         9.2        13.9        20.6        20.9        22.0        22.0        22.0        22.0        22.0        22.0
    23     4  1993    92    4        6.7         8.9         9.2        10.6        18.4        20.9        22.0        22.0        22.0        22.0        22.0        22.0
    24     4  1993    93    4       35.0        38.3         9.2        10.6        18.4        20.9        22.0        22.0        22.0        22.0        22.0        22.0
    25     4  1993    94    4       16.2        22.0        22.3        22.3        22.0        21.2        22.0        22.0        22.0        22.0        22.0        22.0
    26     4  1993    95    4       10.2        21.5        22.0        22.0        22.0        21.8        22.0        22.0        22.0        22.0        22.0        22.0
    27     4  1993    96    4        9.2        16.8        21.3        22.0        22.0        21.9        22.0        22.0        22.0        22.0        22.0        22.0
    28     4  1993    97    4        8.2        12.1        21.0        22.0        22.0        21.9        22.0        22.0        22.0        22.0        22.0        22.0
    29     4  1993    98    4        7.3         8.9        19.7        22.0        22.0        21.9        22.0        22.0        22.0        22.0        22.0        22.0
    30     4  1993    99    4        6.2         8.9        15.5        20.3        22.0        21.9        22.0        22.0        22.0        22.0        22.0        22.0
     1     5  1993   100    4        6.2         8.9        11.5        18.4        22.0        21.9        22.0        22.0        22.0        22.0        22.0        22.0
     2     5  1993   101    4        6.1         8.9         9.3        14.8        22.0        21.9        22.0        22.0        22.0        22.0        22.0        22.0
     3     5  1993   102    4        6.1         8.9         9.3        11.3        20.1        21.9        22.0        22.0        22.0        22.0        22.0        22.0
     4     5  1993   103    4       35.3        35.1         9.3        11.3        20.1        21.9        22.0        22.0        22.0        22.0        22.0        22.0
     5     5  1993   104    4       16.5        22.4        22.4        22.2        21.8        21.9        22.0        22.0        22.0        22.0        22.0        22.0
     6     5  1993   105    4       10.7        22.0        22.0        22.0        22.0        22.0        22.0        22.0        22.0        22.0        22.0        22.0
     7     5  1993   106    4        9.3        17.3        21.8        22.0        22.0        22.0        22.0        22.0        22.0        22.0        22.0        22.0
     8     5  1993   107    4        8.0        12.8        21.8        22.0        22.0        22.0        22.0        22.0        22.0        22.0        22.0        22.0
     9     5  1993   108    4        7.2         9.2        21.4        22.0        22.0        22.0        22.0        22.0        22.0        22.0        22.0        22.0
    10     5  1993   109    4        7.2         9.2        17.2        22.0        22.0        22.0        22.0        22.0        22.0        22.0        22.0        22.0
    11     5  1993   110    4        7.1         9.2        13.4        22.0        22.0        22.0        22.0        22.0        22.0        22.0        22.0        22.0

Legend

DAP          : Days after planting
Stage        : 0: before/after planting
Stage        : 1: emergence or transplant recovery
Stage        : 2: vegetative stage
Stage        : 3: flowering
Stage        : 4: yield formation and ripening
