AquaCrop 7.2 (August 2024) - Output created on (date) : 04-12-2024   at (time) : 03:56:11 PM
Soil Water content in soil profile (WC) and root zone (Wr)

** Run number:  1   -- Water content in soil profile (WCTot layer: 0.00 - 1.20 m) and root zone (Wr with Zx = 1.00 m)
   Day Month  Year   DAP Stage     WCTot   Wr(Zx)      Z       Wr    Wr(SAT)    Wr(FC)   Wr(exp)   Wr(sto)   Wr(sen)   Wr(PWP)
                                     mm       mm       m       mm        mm        mm        mm        mm        mm        mm
    22     1  1993     1    1     259.9    215.9    0.30     61.9     123.0      66.0      60.6      48.2      40.8      30.0
    23     1  1993     2    1     257.6    213.6    0.30     59.6     123.0      66.0      60.6      48.1      40.8      30.0
    24     1  1993     3    1     255.9    211.9    0.30     57.9     123.0      66.0      60.6      48.1      40.8      30.0
    25     1  1993     4    1     254.7    210.7    0.30     56.7     123.0      66.0      60.6      47.1      40.8      30.0
    26     1  1993     5    2     253.6    209.6    0.33     61.4     133.9      71.8      65.9      52.2      44.4      32.6
    27     1  1993     6    2     252.6    208.6    0.35     65.8     143.9      77.2      71.4      56.5      48.0      35.1
    28     1  1993     7    2     251.6    207.6    0.37     69.9     153.2      82.2      76.3      60.5      51.3      37.4
    29     1  1993     8    2     251.0    207.0    0.39     73.8     161.9      86.9      78.7      62.3      53.1      39.5
    30     1  1993     9    2     250.3    206.3    0.41     77.6     170.1      91.3      83.6      66.2      56.3      41.5
    31     1  1993    10    2     249.6    205.6    0.43     81.1     177.9      95.5      88.1      69.7      59.3      43.4
     1     2  1993    11    2     249.0    205.0    0.45     84.5     185.4      99.5      91.8      72.7      61.8      45.2
     2     2  1993    12    2     248.5    204.5    0.47     87.9     192.7     103.4      92.6      73.3      62.5      47.0
     3     2  1993    13    2     248.0    204.0    0.49     91.1     199.6     107.1      98.4      77.9      66.2      48.7
     4     2  1993    14    2     247.3    203.3    0.50     94.1     206.4     110.8     103.1      81.6      69.3      50.3
     5     2  1993    15    2     246.7    202.7    0.52     97.0     213.0     114.3     105.9      83.9      71.2      52.0
     6     2  1993    16    2     246.1    202.1    0.54     99.9     219.4     117.8     108.1      85.6      72.8      53.5
     7     2  1993    17    2     245.5    201.5    0.55    102.6     225.7     121.1     112.2      88.9      75.5      55.1
     8     2  1993    18    2     244.9    200.9    0.57    105.3     231.9     124.4     113.7      90.1      76.6      56.6
     9     2  1993    19    2     244.2    200.2    0.58    107.9     237.9     127.6     117.2      92.8      78.9      58.0
    10     2  1993    20    2     243.6    199.6    0.59    110.4     243.8     130.8     119.6      94.7      80.5      59.5
    11     2  1993    21    2     242.9    198.9    0.61    112.8     249.6     133.9     123.2      97.6      82.9      60.9
    12     2  1993    22    2     242.3    198.3    0.62    115.2     255.2     137.0     123.8      98.1      83.5      62.3
    13     2  1993    23    2     241.5    197.5    0.64    117.5     260.8     140.0     128.8     102.0      86.7      63.6
    14     2  1993    24    2     240.7    196.7    0.65    119.6     266.3     142.9     130.9     103.7      88.2      65.0
    15     2  1993    25    2     239.9    195.9    0.66    121.8     271.8     145.8     132.4     104.9      89.2      66.3
    16     2  1993    26    2     239.0    195.0    0.68    123.7     277.1     148.7     137.4     108.9      92.5      67.6
    17     2  1993    27    2     237.9    193.9    0.69    125.4     282.4     151.5     140.7     111.4      94.6      68.9
    18     2  1993    28    2     236.9    192.9    0.70    127.2     287.6     154.3     141.0     111.7      95.0      70.1
    19     2  1993    29    2     235.8    191.8    0.71    128.9     292.7     157.1     143.6     113.7      96.7      71.4
    20     2  1993    30    2     234.6    190.6    0.73    130.4     297.8     159.8     146.7     116.2      98.8      72.6
    21     2  1993    31    2     233.3    189.3    0.74    131.8     302.8     162.5     148.8     117.9     100.2      73.8
    22     2  1993    32    2     231.9    187.9    0.75    133.0     307.7     165.1     151.6     120.1     102.1      75.1
    23     2  1993    33    2     230.5    186.5    0.76    134.2     312.6     167.8     152.7     120.9     102.9      76.3
    24     2  1993    34    2     228.9    184.9    0.77    135.2     317.5     170.4     155.4     123.1     104.7      77.4
    25     2  1993    35    3     227.1    183.1    0.79    136.0     322.3     172.9     158.4     125.5     106.7      78.6
    26     2  1993    36    3     224.8    180.8    0.80    136.2     327.0     175.5     165.1     130.7     110.9      79.8
    27     2  1993    37    3     222.3    178.3    0.81    136.3     331.7     178.0     166.7     132.0     112.0      80.9
    28     2  1993    38    3     219.7    175.7    0.82    136.2     336.4     180.5     169.4     134.2     113.8      82.0
     1     3  1993    39    3     217.0    173.0    0.83    136.0     341.0     183.0     171.7     136.0     115.4      83.2
     2     3  1993    40    3     214.2    170.2    0.84    135.6     345.6     185.4     174.4     138.2     117.2      84.3
     3     3  1993    41    3     211.5    167.5    0.85    135.3     350.1     187.9     175.6     139.1     118.0      85.4
     4     3  1993    42    3     208.7    164.7    0.86    135.0     354.6     190.3     179.4     142.1     120.5      86.5
     5     3  1993    43    3     264.4    220.4    0.88    193.1     359.0     192.7     180.0     142.6     121.0      87.6
     6     3  1993    44    3     258.4    214.4    0.89    189.4     363.5     195.0     181.1     143.4     121.8      88.6
     7     3  1993    45    3     252.7    208.7    0.90    186.1     367.8     197.4     182.8     144.8     123.0      89.7
     8     3  1993    46    3     248.4    204.4    0.91    184.2     372.2     199.7     184.6     146.2     124.2      90.8
     9     3  1993    47    3     244.2    200.2    0.92    182.3     376.5     202.0     187.2     148.2     125.9      91.8
    10     3  1993    48    3     239.6    195.6    0.93    179.9     380.8     204.3     191.8     151.9     128.8      92.9
    11     3  1993    49    3     234.7    190.7    0.94    177.3     385.1     206.6     195.2     154.6     131.1      93.9
    12     3  1993    50    3     230.1    186.1    0.95    175.0     389.3     208.9     194.8     154.3     130.9      94.9
    13     3  1993    51    3     225.9    181.9    0.96    173.0     393.5     211.1     194.7     154.2     131.0      96.0
    14     3  1993    52    3     221.3    177.3    0.97    170.7     397.7     213.4     198.5     157.2     133.5      97.0
    15     3  1993    53    3     216.6    172.6    0.98    168.2     401.8     215.6     200.6     158.9     134.9      98.0
    16     3  1993    54    3     213.0    169.0    0.99    166.8     405.9     217.8     196.4     155.6     132.5      99.0
    17     3  1993    55    3     209.0    165.0    1.00    165.0     410.0     220.0     200.6     158.9     135.2     100.0
    18     3  1993    56    3     216.7    172.7    1.00    172.7     410.0     220.0     204.7     162.1     137.6     100.0
    19     3  1993    57    3     211.6    167.6    1.00    167.6     410.0     220.0     200.2     158.6     134.9     100.0
    20     3  1993    58    3     206.3    162.3    1.00    162.3     410.0     220.0     201.1     159.3     135.5     100.0
    21     3  1993    59    3     264.2    220.2    1.00    220.2     410.0     220.0     200.2     158.6     134.9     100.0
    22     3  1993    60    3     259.2    215.2    1.00    215.2     410.0     220.0     200.2     158.6     134.9     100.0
    23     3  1993    61    3     253.4    209.4    1.00    209.4     410.0     220.0     202.9     160.7     136.5     100.0
    24     3  1993    62    3     248.3    204.3    1.00    204.3     410.0     220.0     200.6     158.9     135.2     100.0
    25     3  1993    63    3     243.5    199.5    1.00    199.5     410.0     220.0     198.8     157.5     134.1     100.0
    26     3  1993    64    3     237.2    193.2    1.00    193.2     410.0     220.0     205.6     162.8     138.2     100.0
    27     3  1993    65    3     231.8    187.8    1.00    187.8     410.0     220.0     201.5     159.6     135.7     100.0
    28     3  1993    66    3     226.4    182.4    1.00    182.4     410.0     220.0     205.6     162.8     138.2     100.0
    29     3  1993    67    3     221.0    177.0    1.00    177.0     410.0     220.0     206.0     163.2     138.5     100.0
    30     3  1993    68    3     215.6    171.6    1.00    171.6     410.0     220.0     206.0     163.2     138.5     100.0
    31     3  1993    69    3     209.9    165.9    1.00    165.9     410.0     220.0     207.4     164.3     139.3     100.0
     1     4  1993    70    3     264.8    220.8    1.00    220.8     410.0     220.0     204.2     161.8     137.4     100.0
     2     4  1993    71    3     258.6    214.6    1.00    214.6     410.0     220.0     204.7     162.1     137.6     100.0
     3     4  1993    72    3     251.9    207.9    1.00    207.9     410.0     220.0     206.0     163.2     138.5     100.0
     4     4  1993    73    3     245.9    201.9    1.00    201.9     410.0     220.0     203.8     161.4     137.1     100.0
     5     4  1993    74    3     239.8    195.8    1.00    195.8     410.0     220.0     204.7     162.1     137.6     100.0
     6     4  1993    75    3     233.1    189.1    1.00    189.1     410.0     220.0     206.9     163.9     139.0     100.0
     7     4  1993    76    3     226.5    182.5    1.00    182.5     410.0     220.0     206.5     163.6     138.7     100.0
     8     4  1993    77    4     220.5    176.5    1.00    176.5     410.0     220.0     207.8     164.6     139.5     100.0
     9     4  1993    78    4     214.8    170.8    1.00    170.8     410.0     220.0     207.4     164.3     139.3     100.0
    10     4  1993    79    4     209.2    165.2    1.00    165.2     410.0     220.0     206.5     163.6     138.7     100.0
    11     4  1993    80    4     209.9    165.9    1.00    165.9     410.0     220.0     193.0     152.9     130.5     100.0
    12     4  1993    81    4     204.0    160.0    1.00    160.0     410.0     220.0     203.8     161.4     137.1     100.0
    13     4  1993    82    4     263.4    219.4    1.00    219.3     410.0     220.0     206.5     163.6     138.7     100.0
    14     4  1993    83    4     256.7    212.7    1.00    212.7     410.0     220.0     206.9     163.9     139.0     100.0
    15     4  1993    84    4     251.5    207.5    1.00    207.5     410.0     220.0     201.1     159.3     135.5     100.0
    16     4  1993    85    4     244.6    200.6    1.00    200.6     410.0     220.0     208.3     165.0     139.8     100.0
    17     4  1993    86    4     239.2    195.2    1.00    195.1     410.0     220.0     202.0     160.0     136.0     100.0
    18     4  1993    87    4     234.1    190.1    1.00    190.1     410.0     220.0     200.6     158.9     135.2     100.0
    19     4  1993    88    4     228.1    184.1    1.00    184.1     410.0     220.0     204.2     161.8     137.4     100.0
    20     4  1993    89    4     222.3    178.3    1.00    178.3     410.0     220.0     204.2     161.8     137.4     100.0
    21     4  1993    90    4     217.4    173.4    1.00    173.4     410.0     220.0     203.3     161.1     136.8     100.0
    22     4  1993    91    4     212.2    168.2    1.00    168.2     410.0     220.0     204.7     162.1     137.6     100.0
    23     4  1993    92    4     206.7    162.7    1.00    162.7     410.0     220.0     206.5     163.6     138.7     100.0
    24     4  1993    93    4     264.5    220.5    1.00    220.5     410.0     220.0     204.7     162.1     137.6     100.0
    25     4  1993    94    4     258.1    214.1    1.00    214.1     410.0     220.0     206.5     163.6     138.7     100.0
    26     4  1993    95    4     251.5    207.5    1.00    207.5     410.0     220.0     207.4     164.3     139.3     100.0
    27     4  1993    96    4     245.2    201.2    1.00    201.1     410.0     220.0     206.9     163.9     139.0     100.0
    28     4  1993    97    4     239.1    195.1    1.00    195.1     410.0     220.0     205.6     162.8     138.2     100.0
    29     4  1993    98    4     233.7    189.7    1.00    189.7     410.0     220.0     202.9     160.7     136.5     100.0
    30     4  1993    99    4     226.8    182.8    1.00    182.8     410.0     220.0     211.0     167.1     141.5     100.0
     1     5  1993   100    4     220.8    176.8    1.00    176.8     410.0     220.0     211.4     167.5     141.7     100.0
     2     5  1993   101    4     215.0    171.0    1.00    171.0     410.0     220.0     211.0     167.1     141.5     100.0
     3     5  1993   102    4     209.6    165.6    1.00    165.6     410.0     220.0     209.6     166.0     140.6     100.0
     4     5  1993   103    4     265.0    221.0    1.00    221.0     410.0     220.0     205.6     162.8     138.2     100.0
     5     5  1993   104    4     259.1    215.1    1.00    215.1     410.0     220.0     206.5     163.6     138.7     100.0
     6     5  1993   105    4     252.8    208.8    1.00    208.8     410.0     220.0     206.9     163.9     139.0     100.0
     7     5  1993   106    4     246.4    202.4    1.00    202.4     410.0     220.0     209.2     165.7     140.4     100.0
     8     5  1993   107    4     240.5    196.5    1.00    196.5     410.0     220.0     207.8     164.6     139.5     100.0
     9     5  1993   108    4     235.7    191.7    1.00    191.7     410.0     220.0     205.6     162.8     138.2     100.0
    10     5  1993   109    4     231.5    187.5    1.00    187.5     410.0     220.0     207.4     164.3     139.3     100.0
    11     5  1993   110    4     227.7    183.7    1.00    183.7     410.0     220.0     205.6     162.8     138.2     100.0

Legend

DAP          : Days after planting
Stage        : 0: before/after planting
Stage        : 1: emergence or transplant recovery
Stage        : 2: vegetative stage
Stage        : 3: flowering
Stage        : 4: yield formation and ripening
WCTot        : Water content in total soil profile (layer: 0.00 - 1.20 m)
Wr(Zx)       : Water content in maximum effective root zone (Zx = 1.00 m)
Z            : Effective rooting depth
Wr           : Water content in effective root zone
Wr(Sat)      : Water content in effective root zone if saturated
Wr(FC)       : Water content in effective root zone at field capacity
Wr(exp)      : Water content in effective root zone at upper threshold for leaf expansion
Wr(sto)      : Water content in effective root zone at upper threshold for stomatal closure
Wr(sen)      : Water content in effective root zone at upper threshold for early canopy senescence
Wr(PWP)      : Water content in effective root zone at permanent wilting point
