AquaCrop 7.2 (August 2024) - Output created on (date) : 04-12-2024   at (time) : 03:56:11 PM
Climate input data

** Run number:  1
   Day Month  Year   DAP Stage     Rain       ETo      Tmin      Tavg      Tmax      CO2
                                    mm        mm        °C        °C        °C       ppm
    22     1  1993     1    1       0.0       5.2      21.0      24.6      28.3    357.21
    23     1  1993     2    1       0.0       5.1      21.9      24.8      27.7    357.21
    24     1  1993     3    1       0.0       5.1      20.8      24.3      27.8    357.21
    25     1  1993     4    1       0.0       4.2      18.7      23.2      27.7    357.21
    26     1  1993     5    2       0.0       5.0      21.4      25.4      29.3    357.21
    27     1  1993     6    2       0.0       5.3      22.1      25.5      28.8    357.21
    28     1  1993     7    2       0.0       5.5      20.6      24.4      28.1    357.21
    29     1  1993     8    2       0.0       4.4      20.4      25.4      30.5    357.21
    30     1  1993     9    2       0.0       4.9      22.3      25.8      29.3    357.21
    31     1  1993    10    2       0.0       5.2      21.9      25.5      29.1    357.21
     1     2  1993    11    2       0.0       5.2      20.8      25.5      30.1    357.21
     2     2  1993    12    2       0.0       3.9      21.6      24.8      27.9    357.21
     3     2  1993    13    2       0.0       5.0      23.3      26.1      29.0    357.21
     4     2  1993    14    2       0.0       5.6      22.2      26.3      30.4    357.21
     5     2  1993    15    2       0.0       5.4      22.4      27.1      31.8    357.21
     6     2  1993    16    2       0.0       5.0      22.4      27.0      31.7    357.21
     7     2  1993    17    2       0.0       5.4      22.9      27.6      32.3    357.21
     8     2  1993    18    2       0.0       4.8      22.0      26.4      30.9    357.21
     9     2  1993    19    2       0.0       5.0      23.2      27.4      31.6    357.21
    10     2  1993    20    2       0.0       4.8      22.3      26.9      31.4    357.21
    11     2  1993    21    2       0.0       5.1      21.9      25.9      30.0    357.21
    12     2  1993    22    2       0.0       4.3      22.0      25.9      29.8    357.21
    13     2  1993    23    2       0.0       5.1      23.0      27.5      32.0    357.21
    14     2  1993    24    2       0.0       4.9      24.1      27.9      31.6    357.21
    15     2  1993    25    2       0.0       4.5      22.2      26.7      31.2    357.21
    16     2  1993    26    2       0.0       5.3      21.8      26.9      32.0    357.21
    17     2  1993    27    2       0.0       5.5      21.6      26.4      31.1    357.21
    18     2  1993    28    2       0.0       4.8      21.3      25.4      29.4    357.21
    19     2  1993    29    2       0.0       4.8      23.9      27.3      30.7    357.21
    20     2  1993    30    2       0.0       5.0      23.0      26.9      30.8    357.21
    21     2  1993    31    2       0.0       4.9      24.0      27.5      31.0    357.21
    22     2  1993    32    2       0.0       5.0      22.5      26.3      30.1    357.21
    23     2  1993    33    2       0.0       4.6      23.6      26.7      29.8    357.21
    24     2  1993    34    2       0.0       4.7      21.2      25.8      30.4    357.21
    25     2  1993    35    3       0.0       4.9      18.9      24.1      29.3    357.21
    26     2  1993    36    3       0.0       6.1      20.5      26.2      31.9    357.21
    27     2  1993    37    3       0.0       5.9      21.9      26.4      30.9    357.21
    28     2  1993    38    3       0.0       6.0      21.7      26.3      30.9    357.21
     1     3  1993    39    3       0.0       6.0      23.6      26.7      29.8    357.21
     2     3  1993    40    3       0.0       6.1      24.7      27.0      29.4    357.21
     3     3  1993    41    3       0.0       5.8      23.3      26.4      29.5    357.21
     4     3  1993    42    3       0.0       6.2      23.6      27.0      30.3    357.21
     5     3  1993    43    3       0.0       5.8      21.2      26.1      31.1    357.21
     6     3  1993    44    3       0.0       5.5      21.2      25.8      30.4    357.21
     7     3  1993    45    3       0.0       5.4      21.9      26.4      30.8    357.21
     8     3  1993    46    3       0.0       5.3      22.9      26.8      30.7    357.21
     9     3  1993    47    3       0.0       5.4      22.7      27.4      32.0    357.21
    10     3  1993    48    3       0.0       6.0      22.8      27.5      32.2    357.21
    11     3  1993    49    3       0.0       6.3      23.3      28.3      33.2    357.21
    12     3  1993    50    3       0.0       5.7      23.1      27.5      31.8    357.21
    13     3  1993    51    3       0.0       5.2      23.7      27.5      31.3    357.21
    14     3  1993    52    3       0.0       5.6      24.9      28.9      32.9    357.21
    15     3  1993    53    3       0.0       5.6      25.8      28.6      31.4    357.21
    16     3  1993    54    3       0.0       4.2      25.4      27.7      30.0    357.21
    17     3  1993    55    3       0.0       4.7      25.4      27.7      30.0    357.21
    18     3  1993    56    3      13.8       5.6      24.4      27.9      31.3    357.21
    19     3  1993    57    3       0.0       4.6      24.5      27.9      31.3    357.21
    20     3  1993    58    3       0.0       4.8      24.0      28.1      32.2    357.21
    21     3  1993    59    3       0.0       4.6      24.0      28.1      32.3    357.21
    22     3  1993    60    3       0.0       4.6      24.4      28.3      32.3    357.21
    23     3  1993    61    3       0.0       5.2      24.3      27.8      31.2    357.21
    24     3  1993    62    3       0.0       4.7      23.9      27.1      30.4    357.21
    25     3  1993    63    3       0.0       4.3      22.6      26.1      29.7    357.21
    26     3  1993    64    3       0.0       5.8      24.2      27.7      31.2    357.21
    27     3  1993    65    3       0.0       4.9      24.7      27.9      31.0    357.21
    28     3  1993    66    3       0.0       5.8      25.3      29.0      32.6    357.21
    29     3  1993    67    3       0.0       5.9      24.3      28.1      31.8    357.21
    30     3  1993    68    3       0.0       5.9      24.4      28.5      32.6    357.21
    31     3  1993    69    3       0.0       6.2      22.9      28.1      33.4    357.21
     1     4  1993    70    3       0.0       5.5      23.8      28.0      32.2    357.21
     2     4  1993    71    3       0.0       5.6      24.4      28.2      32.0    357.21
     3     4  1993    72    3       0.0       5.9      23.5      27.6      31.8    357.21
     4     4  1993    73    3       0.0       5.4      23.4      27.3      31.2    357.21
     5     4  1993    74    3       0.0       5.6      23.7      26.7      29.7    357.21
     6     4  1993    75    3       0.0       6.1      23.6      28.2      32.7    357.21
     7     4  1993    76    3       0.0       6.0      25.4      28.3      31.1    357.21
     8     4  1993    77    4       0.0       6.3      23.0      27.8      32.5    357.21
     9     4  1993    78    4       0.0       6.2      23.7      27.6      31.6    357.21
    10     4  1993    79    4       0.0       6.0      24.3      28.5      32.6    357.21
    11     4  1993    80    4       4.0       3.0      24.6      26.1      27.6    357.21
    12     4  1993    81    4       0.0       5.4      24.7      28.0      31.3    357.21
    13     4  1993    82    4       0.0       6.0      22.0      27.1      32.3    357.21
    14     4  1993    83    4       0.0       6.1      24.9      28.8      32.8    357.21
    15     4  1993    84    4       0.0       4.8      24.9      28.8      32.6    357.21
    16     4  1993    85    4       0.0       6.4      25.6      29.3      33.0    357.21
    17     4  1993    86    4       0.0       5.0      24.3      27.7      31.1    357.21
    18     4  1993    87    4       0.0       4.7      24.8      28.4      31.9    357.21
    19     4  1993    88    4       0.0       5.5      25.5      29.0      32.5    357.21
    20     4  1993    89    4       0.0       5.5      25.4      28.6      31.9    357.21
    21     4  1993    90    4       0.0       5.3      24.4      28.2      32.0    357.21
    22     4  1993    91    4       0.0       5.6      24.2      28.3      32.3    357.21
    23     4  1993    92    4       0.0       6.0      23.6      28.1      32.5    357.21
    24     4  1993    93    4       0.0       5.6      25.2      29.0      32.7    357.21
    25     4  1993    94    4       0.0       6.0      27.3      29.5      31.6    357.21
    26     4  1993    95    4       0.0       6.2      25.5      28.8      32.0    357.21
    27     4  1993    96    4       0.0       6.1      23.5      28.3      33.0    357.21
    28     4  1993    97    4       0.0       5.8      24.4      28.6      32.7    357.21
    29     4  1993    98    4       0.0       5.2      25.4      28.6      31.8    357.21
    30     4  1993    99    4       0.0       7.0      26.7      31.0      35.3    357.21
     1     5  1993   100    4       0.0       7.1      24.4      29.9      35.4    357.21
     2     5  1993   101    4       0.0       7.0      24.8      30.0      35.3    357.21
     3     5  1993   102    4       0.0       6.7      25.3      29.5      33.6    357.21
     4     5  1993   103    4       0.0       5.8      25.7      30.0      34.2    357.21
     5     5  1993   104    4       0.0       6.0      26.5      30.1      33.6    357.21
     6     5  1993   105    4       0.0       6.1      26.2      29.5      32.8    357.21
     7     5  1993   106    4       0.0       6.6      25.0      29.6      34.2    357.21
     8     5  1993   107    4       0.0       6.3      25.9      29.8      33.6    357.21
     9     5  1993   108    4       0.0       5.8      26.2      30.0      33.8    357.21
    10     5  1993   109    4       0.0       6.2      25.9      29.6      33.3    357.21
    11     5  1993   110    4       0.0       5.8      25.6      29.6      33.5    357.21

Legend

DAP          : Days after planting
Stage        : 0: before/after planting
Stage        : 1: emergence or transplant recovery
Stage        : 2: vegetative stage
Stage        : 3: flowering
Stage        : 4: yield formation and ripening
Rain         : Rainfall
ETo          : Reference evapotranspiration
Tmin         : Minimum air temperature
Tavg         : Average air temperature
Tmax         : Maximum air temperature
CO2          : Atmospheric CO2 concentration
