AquaCrop 7.2 (August 2024) - Output created on (date) : 04-12-2024   at (time) : 03:56:11 PM
Crop development and production

** Run number:  1
   Day Month  Year   DAP Stage    GD       Z     StExp  StSto  StSen StSalt StWeed   CC      CCw     StTr  Kc(Tr)     Trx      Tr       TrW  Tr/Trx   WP    Biomass     HI    Y(dry)  Y(fresh)  Brelative   WPet      Bin     Bout
                                °C-day     m       %      %      %      %      %      %       %       %       -        mm       mm       mm    %     g/m2    ton/ha      %    ton/ha   ton/ha       %      kg/m3   ton/ha   ton/ha
    22     1  1993     1    1    17.5    0.30     -9     -9     -9      0     -9     0.0     0.0      0    -9.00      0.0      0.0      0.0   100    17.4     0.000    -9.9    0.000    0.000       -9      0.00    0.000    0.000
    23     1  1993     2    1    17.8    0.30     -9     -9     -9      0     -9     0.0     0.0      0    -9.00      0.0      0.0      0.0   100    17.4     0.000    -9.9    0.000    0.000       -9      0.00    0.000    0.000
    24     1  1993     3    1    17.3    0.30     -9     -9     -9      0     -9     0.0     0.0      0    -9.00      0.0      0.0      0.0   100    17.4     0.000    -9.9    0.000    0.000       -9      0.00    0.000    0.000
    25     1  1993     4    1    16.2    0.30     -9     -9     -9      0     -9     0.0     0.0      0    -9.00      0.0      0.0      0.0   100    17.4     0.000    -9.9    0.000    0.000       -9      0.00    0.000    0.000
    26     1  1993     5    2    17.7    0.33     -9      0      0      0      0     0.8     0.8      0     0.01      0.1      0.1      0.1   100    17.4     0.002    -9.9    0.000    0.000      100      0.00    0.000    0.000
    27     1  1993     6    2    18.1    0.35      6      0      0      0      0     0.8     0.8      0     0.02      0.1      0.1      0.1   100    17.4     0.005    -9.9    0.000    0.000      100      0.00    0.000    0.000
    28     1  1993     7    2    17.3    0.37      8      0      0      0      0     0.9     0.9      0     0.02      0.1      0.1      0.1   100    17.4     0.008    -9.9    0.000    0.000       99      0.00    0.000    0.000
    29     1  1993     8    2    17.2    0.39      5      0      0      0      0     1.1     1.1      0     0.02      0.1      0.1      0.1   100    17.4     0.012    -9.9    0.000    0.000       99      0.00    0.000    0.000
    30     1  1993     9    2    18.1    0.41      7      0      0      0      0     1.2     1.2      0     0.02      0.1      0.1      0.1   100    17.4     0.016    -9.9    0.000    0.000       98      0.00    0.000    0.000
    31     1  1993    10    2    17.9    0.43      8      0      0      0      0     1.3     1.3      0     0.03      0.1      0.1      0.1   100    17.4     0.020    -9.9    0.000    0.000       98      0.00    0.000    0.000
     1     2  1993    11    2    17.4    0.45      8      0      0      0      0     1.5     1.5      0     0.03      0.1      0.1      0.1   100    17.4     0.025    -9.9    0.000    0.000       97      0.00    0.000    0.000
     2     2  1993    12    2    17.8    0.47      4      0      0      0      0     1.7     1.7      0     0.03      0.1      0.1      0.1   100    17.4     0.031    -9.9    0.000    0.000       97      0.00    0.000    0.000
     3     2  1993    13    2    18.6    0.49      7      0      0      0      0     1.9     1.9      0     0.04      0.2      0.2      0.2   100    17.4     0.037    -9.9    0.000    0.000       96      0.00    0.000    0.000
     4     2  1993    14    2    18.1    0.50      9      0      0      0      0     2.1     2.1      0     0.04      0.2      0.2      0.2   100    17.4     0.044    -9.9    0.000    0.000       96      0.00    0.000    0.000
     5     2  1993    15    2    18.2    0.52      9      0      0      0      0     2.4     2.4      0     0.04      0.2      0.2      0.2   100    17.4     0.051    -9.9    0.000    0.000       95      0.00    0.000    0.000
     6     2  1993    16    2    18.2    0.54      8      0      0      0      0     2.6     2.6      0     0.05      0.2      0.2      0.2   100    17.4     0.060    -9.9    0.000    0.000       94      0.00    0.000    0.000
     7     2  1993    17    2    18.4    0.55      9      0      0      0      0     3.0     3.0      0     0.05      0.3      0.3      0.3   100    17.4     0.069    -9.9    0.000    0.000       94      0.00    0.000    0.000
     8     2  1993    18    2    18.0    0.57      7      0      0      0      0     3.3     3.3      0     0.06      0.3      0.3      0.3   100    17.4     0.080    -9.9    0.000    0.000       93      0.00    0.000    0.000
     9     2  1993    19    2    18.6    0.58      8      0      0      0      0     3.7     3.7      0     0.07      0.3      0.3      0.3   100    17.4     0.092    -9.9    0.000    0.000       93      0.00    0.000    0.000
    10     2  1993    20    2    18.1    0.59      8      0      0      0      0     4.2     4.2      0     0.08      0.4      0.4      0.4   100    17.4     0.106    -9.9    0.000    0.000       92      0.00    0.000    0.000
    11     2  1993    21    2    17.9    0.61      9      0      0      0      0     4.6     4.6      0     0.09      0.4      0.4      0.4   100    17.4     0.120    -9.9    0.000    0.000       91      0.00    0.000    0.000
    12     2  1993    22    2    18.0    0.62      7      0      0      0      0     5.2     5.2      0     0.10      0.4      0.4      0.4   100    17.4     0.137    -9.9    0.000    0.000       91      0.00    0.000    0.000
    13     2  1993    23    2    18.5    0.64      9      0      0      0      0     5.8     5.8      0     0.11      0.5      0.5      0.5   100    17.4     0.156    -9.9    0.000    0.000       90      0.00    0.000    0.000
    14     2  1993    24    2    19.1    0.65      9      0      0      0      0     6.5     6.5      0     0.12      0.6      0.6      0.6   100    17.4     0.176    -9.9    0.000    0.000       89      0.00    0.000    0.000
    15     2  1993    25    2    18.1    0.66      8      0      0      0      0     7.3     7.3      0     0.13      0.6      0.6      0.6   100    17.4     0.199    -9.9    0.000    0.000       88      0.00    0.000    0.000
    16     2  1993    26    2    17.9    0.68     12      0      0      0      0     8.1     8.1      0     0.15      0.8      0.8      0.8   100    17.4     0.225    -9.9    0.000    0.000       88      0.00    0.000    0.000
    17     2  1993    27    2    17.8    0.69     13      0      0      0      0     9.0     9.0      0     0.16      0.9      0.9      0.9   100    17.4     0.253    -9.9    0.000    0.000       87      0.00    0.000    0.000
    18     2  1993    28    2    17.6    0.70     11      0      0      0      0    10.1    10.1      0     0.18      0.9      0.9      0.9   100    17.4     0.285    -9.9    0.000    0.000       86      0.00    0.000    0.000
    19     2  1993    29    2    18.9    0.71     12      0      0      0      0    11.2    11.2      0     0.20      1.0      1.0      1.0   100    17.4     0.319    -9.9    0.000    0.000       85      0.00    0.000    0.000
    20     2  1993    30    2    18.5    0.73     14      0      0      0      0    12.5    12.5      0     0.22      1.1      1.1      1.1   100    17.4     0.358    -9.9    0.000    0.000       85      0.00    0.000    0.000
    21     2  1993    31    2    19.0    0.74     15      0      0      0      0    13.9    13.9      0     0.24      1.2      1.2      1.2   100    17.4     0.400    -9.9    0.000    0.000       84      0.00    0.000    0.000
    22     2  1993    32    2    18.3    0.75     17      0      0      0      0    15.4    15.4      0     0.27      1.3      1.3      1.3   100    17.4     0.446    -9.9    0.000    0.000       83      0.00    0.000    0.000
    23     2  1993    33    2    18.8    0.76     16      0      0      0      0    17.0    17.0      0     0.29      1.3      1.3      1.3   100    17.4     0.497    -9.9    0.000    0.000       82      0.00    0.000    0.000
    24     2  1993    34    2    17.6    0.77     18      0      0      0      0    18.8    18.8      0     0.32      1.5      1.5      1.5   100    17.4     0.553    -9.9    0.000    0.000       81      0.00    0.000    0.000
    25     2  1993    35    3    16.4    0.79     22      0      0      0      0    20.7    20.7      0     0.35      1.7      1.7      1.7   100    17.4     0.613    -9.9    0.000    0.000       80      0.00    0.000    0.000
    26     2  1993    36    3    17.3    0.80     34      0      0      0      0    22.5    22.5      0     0.37      2.3      2.3      2.3   100    17.4     0.678    -9.9    0.000    0.000       79      0.00    0.000    0.000
    27     2  1993    37    3    17.9    0.81     38      0      0      0      0    24.2    24.2      0     0.40      2.4      2.4      2.4   100    17.4     0.748    -9.9    0.000    0.000       78      0.00    0.000    0.000
    28     2  1993    38    3    17.9    0.82     46      0      0      0      0    25.9    25.9      0     0.42      2.5      2.5      2.5   100    17.4     0.821     1.5    0.012    0.247       77      0.03    0.000    0.000
     1     3  1993    39    3    18.8    0.83     54      0      0      0      0    27.4    27.4      0     0.44      2.7      2.7      2.7   100    17.4     0.899     1.7    0.015    0.310       76      0.03    0.000    0.000
     2     3  1993    40    3    19.4    0.84     65      0      0      0      0    28.6    28.6      0     0.46      2.8      2.8      2.8   100    17.4     0.979     2.0    0.019    0.386       75      0.04    0.000    0.000
     3     3  1993    41    3    18.6    0.85     72      2      0      0      0    29.6    29.6      0     0.47      2.7      2.7      2.7    98    17.4     1.059     2.3    0.024    0.477       74      0.05    0.000    0.000
     4     3  1993    42    3    18.8    0.86     93      8      0      0      0    29.7    29.7      0     0.47      2.9      2.7      2.7    92    17.4     1.135     2.6    0.029    0.584       72      0.05    0.000    0.000
     5     3  1993    43    3    17.6    0.88      0      0      0      0      0    33.6    33.6      0     0.52      3.0      3.0      3.0   100    17.4     1.227     2.9    0.036    0.721       72      0.06    0.000    0.000
     6     3  1993    44    3    17.6    0.89      0      0      0      0      0    38.0    38.0      0     0.58      3.2      3.2      3.2   100    17.4     1.327     3.4    0.045    0.890       72      0.07    0.000    0.000
     7     3  1993    45    3    17.9    0.90      0      0      0      0      0    42.2    42.2      0     0.63      3.4      3.4      3.4   100    17.4     1.437     3.8    0.055    1.099       72      0.07    0.000    0.000
     8     3  1993    46    3    18.4    0.91      0      0      0      0      0    46.0    46.0      0     0.67      3.6      3.6      3.6   100    17.4     1.554     4.4    0.068    1.353       73      0.09    0.000    0.000
     9     3  1993    47    3    18.4    0.92      0      0      0      0      0    49.4    49.4      0     0.71      3.8      3.8      3.8   100    17.4     1.677     5.0    0.083    1.662       73      0.10    0.000    0.000
    10     3  1993    48    3    18.4    0.93      3      0      0      0      0    52.2    52.2      0     0.73      4.4      4.4      4.4   100    17.4     1.805     5.6    0.102    2.032       74      0.12    0.000    0.000
    11     3  1993    49    3    18.6    0.94      7      0      0      0      0    54.7    54.7      0     0.76      4.8      4.8      4.8   100    17.4     1.937     6.4    0.124    2.473       75      0.14    0.000    0.000
    12     3  1993    50    3    18.6    0.95      9      0      0      0      0    56.8    56.8      0     0.78      4.4      4.4      4.4   100    17.4     2.073     7.2    0.150    2.996       76      0.16    0.000    0.000
    13     3  1993    51    3    18.9    0.96     11      0      0      0      0    58.7    58.7      0     0.80      4.1      4.1      4.1   100    17.4     2.212     8.2    0.181    3.613       76      0.18    0.000    0.000
    14     3  1993    52    3    19.4    0.97     18      0      0      0      0    60.2    60.2      0     0.81      4.5      4.5      4.5   100    17.4     2.354     9.2    0.217    4.334       77      0.21    0.000    0.000
    15     3  1993    53    3    19.9    0.98     25      0      0      0      0    61.5    61.5      0     0.82      4.6      4.6      4.6   100    17.4     2.498    10.4    0.259    5.171       78      0.24    0.000    0.000
    16     3  1993    54    3    19.7    0.99     23      0      0      0      0    62.7    62.7      0     0.83      3.5      3.5      3.5   100    17.4     2.643    11.6    0.307    6.139       79      0.27    0.000    0.000
    17     3  1993    55    3    19.7    1.00     33      0      0      0      0    63.6    63.6      0     0.84      4.0      4.0      4.0   100    17.4     2.790    12.9    0.361    7.215       79      0.31    0.000    0.000
    18     3  1993    56    3    19.2    1.00      0      0      0      0      0    64.9    64.9      0     0.85      4.8      4.8      4.8   100    17.4     2.939    14.2    0.419    8.374       80      0.34    0.000    0.000
    19     3  1993    57    3    19.3    1.00     25      0      0      0      0    65.8    65.8      0     0.86      4.0      4.0      4.0   100    17.4     3.090    15.6    0.481    9.616       80      0.37    0.000    0.000
    20     3  1993    58    3    19.0    1.00     38      0      0      0      0    66.4    66.4      0     0.87      4.2      4.2      4.2   100    17.4     3.241    16.9    0.547   10.941       81      0.41    0.000    0.000
    21     3  1993    59    3    19.0    1.00      0      0      0      0      0    67.4    67.4      0     0.88      4.0      4.0      4.0   100    17.4     3.394    18.2    0.618   12.350       82      0.45    0.000    0.000
    22     3  1993    60    3    19.2    1.00      0      0      0      0      0    68.2    68.2      0     0.88      4.1      4.1      4.1   100    17.4     3.548    19.5    0.692   13.845       82      0.48    0.000    0.000
    23     3  1993    61    3    19.1    1.00      0      0      0      0      0    69.0    69.0      0     0.89      4.6      4.6      4.6   100    17.4     3.703    20.8    0.771   15.426       83      0.52    0.000    0.000
    24     3  1993    62    3    18.9    1.00      0      0      0      0      0    69.7    69.7      0     0.90      4.2      4.2      4.2   100    17.4     3.859    22.1    0.855   17.093       83      0.55    0.000    0.000
    25     3  1993    63    3    18.3    1.00      0      0      0      0      0    70.3    70.3      0     0.90      3.9      3.9      3.9   100    17.4     4.016    23.5    0.942   18.847       84      0.59    0.000    0.000
    26     3  1993    64    3    19.1    1.00      2      0      0      0      0    70.8    70.8      0     0.91      5.2      5.2      5.2   100    17.4     4.174    24.8    1.034   20.687       84      0.62    0.000    0.000
    27     3  1993    65    3    19.4    1.00      4      0      0      0      0    71.2    71.2      0     0.91      4.5      4.5      4.5   100    17.4     4.332    26.1    1.131   22.614       84      0.66    0.000    0.000
    28     3  1993    66    3    19.6    1.00     10      0      0      0      0    71.6    71.6      0     0.91      5.3      5.3      5.3   100    17.4     4.491    27.4    1.231   24.627       85      0.70    0.000    0.000
    29     3  1993    67    3    19.1    1.00     17      0      0      0      0    71.9    71.9      0     0.91      5.4      5.4      5.4   100    17.4     4.651    28.7    1.336   26.726       85      0.73    0.000    0.000
    30     3  1993    68    3    19.2    1.00     26      0      0      0      0    72.2    72.2      0     0.92      5.4      5.4      5.4   100    17.4     4.811    30.0    1.446   28.911       86      0.77    0.000    0.000
    31     3  1993    69    3    18.4    1.00     41      0      0      0      0    72.3    72.3      0     0.92      5.7      5.7      5.7   100    17.4     4.971    31.4    1.559   31.182       86      0.81    0.000    0.000
     1     4  1993    70    3    18.9    1.00      0      0      0      0      0    72.6    72.6      0     0.92      5.1      5.1      5.1   100    17.4     5.131    32.7    1.677   33.539       86      0.84    0.000    0.000
     2     4  1993    71    3    19.2    1.00      0      0      0      0      0    72.9    72.9      0     0.92      5.2      5.2      5.2   100    17.4     5.291    34.0    1.799   35.982       87      0.88    0.000    0.000
     3     4  1993    72    3    18.8    1.00      0      0      0      0      0    73.1    73.1      0     0.92      5.4      5.4      5.4   100    17.4     5.452    35.3    1.926   38.510       87      0.91    0.000    0.000
     4     4  1993    73    3    18.7    1.00      0      0      0      0      0    73.3    73.3      0     0.92      5.0      5.0      5.0   100    17.4     5.613    36.6    2.056   41.124       87      0.95    0.000    0.000
     5     4  1993    74    3    18.9    1.00      1      0      0      0      0    73.5    73.5      0     0.92      5.2      5.2      5.2   100    17.4     5.774    38.0    2.191   43.824       88      0.98    0.000    0.000
     6     4  1993    75    3    18.8    1.00      5      0      0      0      0    74.7    74.7      0     0.93      5.7      5.7      5.7   100    17.4     5.936    39.3    2.331   46.619       88      1.01    0.000    0.000
     7     4  1993    76    3    19.7    1.00     -9      0      0      0      0    74.7    74.7      0     0.93      5.6      5.6      5.6   100    17.4     6.098    40.6    2.475   49.500       88      1.04    0.000    0.000
     8     4  1993    77    4    18.5    1.00     -9      0      0      0      0    74.7    74.7      0     0.93      5.9      5.9      5.9   100    17.4     6.260    41.9    2.623   52.465       88      1.08    0.000    0.000
     9     4  1993    78    4    18.9    1.00     -9      0      0      0      0    74.8    74.8      0     0.93      5.8      5.8      5.8   100    17.4     6.422    43.2    2.776   55.514       89      1.12    0.000    0.000
    10     4  1993    79    4    19.1    1.00     -9      0      0      0      0    74.8    74.8      0     0.93      5.6      5.6      5.6   100    17.4     6.584    44.5    2.932   58.647       89      1.15    0.000    0.000
    11     4  1993    80    4    19.1    1.00     -9      0      0      0      0    74.8    74.8      0     0.93      2.8      2.8      2.8   100    17.4     6.746    45.9    3.093   61.865       89      1.20    0.000    0.000
    12     4  1993    81    4    19.4    1.00     -9      0      0      0      0    74.8    74.8      0     0.93      5.0      5.0      5.0   100    17.4     6.907    47.2    3.258   65.164       89      1.24    0.000    0.000
    13     4  1993    82    4    18.0    1.00     -9      0      0      0      0    74.9    74.9      0     0.93      5.6      5.6      5.6   100    17.4     7.069    48.5    3.427   68.549       90      1.27    0.000    0.000
    14     4  1993    83    4    19.4    1.00     -9      0      0      0      0    74.9    74.9      0     0.93      5.6      5.6      5.6   100    17.4     7.230    49.8    3.601   72.018       90      1.30    0.000    0.000
    15     4  1993    84    4    19.4    1.00     -9      0      0      0      0    74.9    74.9      0     0.92      4.4      4.4      4.4   100    17.4     7.391    51.1    3.778   75.570       90      1.34    0.000    0.000
    16     4  1993    85    4    19.8    1.00     -9      0      0      0      0    74.9    74.9      0     0.92      5.9      5.9      5.9   100    17.4     7.552    52.4    3.960   79.205       90      1.37    0.000    0.000
    17     4  1993    86    4    19.1    1.00     -9      0      0      0      0    74.9    74.9      0     0.92      4.6      4.6      4.6   100    17.4     7.713    53.8    4.146   82.924       90      1.41    0.000    0.000
    18     4  1993    87    4    19.4    1.00     -9      0      0      0      0    74.9    74.9      0     0.92      4.3      4.3      4.3   100    17.4     7.874    55.1    4.336   86.726       91      1.45    0.000    0.000
    19     4  1993    88    4    19.8    1.00     -9      0      0      0      0    74.9    74.9      0     0.92      5.1      5.1      5.1   100    17.4     8.034    56.4    4.531   90.611       91      1.48    0.000    0.000
    20     4  1993    89    4    19.7    1.00     -9      0      0      0      0    74.9    74.9      0     0.92      5.1      5.1      5.1   100    17.4     8.194    57.7    4.729   94.578       91      1.52    0.000    0.000
    21     4  1993    90    4    19.2    1.00     -9      0      0      0      0    74.9    74.9      0     0.92      4.9      4.9      4.9   100    17.4     8.355    59.0    4.931   98.628       91      1.56    0.000    0.000
    22     4  1993    91    4    19.1    1.00     -9      0      0      0      0    75.0    75.0      0     0.92      5.1      5.1      5.1   100    17.4     8.515    60.3    5.138  102.761       91      1.60    0.000    0.000
    23     4  1993    92    4    18.8    1.00     -9      0     -9      0      0    74.6    74.6      0     0.91      5.5      5.5      5.5   100    17.4     8.674    61.7    5.348  106.960       91      1.64    0.000    0.000
    24     4  1993    93    4    19.6    1.00     -9      0     -9      0      0    74.3    74.3      0     0.90      5.1      5.1      5.1   100    17.4     8.831    63.0    5.561  111.229       91      1.67    0.000    0.000
    25     4  1993    94    4    20.6    1.00     -9      0     -9      0      0    73.9    73.9      0     0.90      5.4      5.4      5.4   100    17.4     8.987    63.0    5.660  113.194       92      1.67    0.000    0.000
    26     4  1993    95    4    19.8    1.00     -9      0     -9      0      0    73.6    73.6      0     0.89      5.5      5.5      5.5   100    17.4     9.142    63.0    5.757  115.141       92      1.67    0.000    0.000
    27     4  1993    96    4    18.8    1.00     -9      0     -9      0      0    73.1    73.1      0     0.88      5.3      5.3      5.3   100    17.4     9.295    63.0    5.853  117.067       92      1.66    0.000    0.000
    28     4  1993    97    4    19.2    1.00     -9      0     -9      0      0    72.7    72.7      0     0.87      5.0      5.0      5.0   100    17.4     9.446    63.0    5.949  118.971       92      1.66    0.000    0.000
    29     4  1993    98    4    19.7    1.00     -9      0     -9      0      0    72.2    72.2      0     0.86      4.5      4.5      4.5   100    17.4     9.595    63.0    6.043  120.851       92      1.66    0.000    0.000
    30     4  1993    99    4    20.4    1.00     -9      0     -9      0      0    71.6    71.6      0     0.85      5.9      5.9      5.9   100    17.4     9.742    63.0    6.135  122.707       92      1.66    0.000    0.000
     1     5  1993   100    4    19.2    1.00     -9      0     -9      0      0    71.0    71.0      0     0.83      5.9      5.9      5.9   100    17.4     9.888    63.0    6.227  124.536       92      1.66    0.000    0.000
     2     5  1993   101    4    19.4    1.00     -9      0     -9      0      0    70.4    70.4      0     0.82      5.7      5.7      5.7   100    17.4    10.030    63.0    6.317  126.336       92      1.65    0.000    0.000
     3     5  1993   102    4    19.6    1.00     -9      0     -9      0      0    69.7    69.7      0     0.81      5.4      5.4      5.4   100    17.4    10.171    63.0    6.405  128.106       93      1.65    0.000    0.000
     4     5  1993   103    4    19.9    1.00     -9      0     -9      0      0    69.0    69.0      0     0.79      4.6      4.6      4.6   100    17.4    10.309    63.0    6.492  129.843       93      1.65    0.000    0.000
     5     5  1993   104    4    20.3    1.00     -9      0     -9      0      0    68.2    68.2      0     0.77      4.6      4.6      4.6   100    17.4    10.444    63.0    6.577  131.544       93      1.65    0.000    0.000
     6     5  1993   105    4    20.1    1.00     -9      0     -9      0      0    67.3    67.3      0     0.76      4.6      4.6      4.6   100    17.4    10.576    63.0    6.660  133.209       93      1.65    0.000    0.000
     7     5  1993   106    4    19.5    1.00     -9      0     -9      0      0    66.4    66.4      0     0.74      4.9      4.9      4.9   100    17.4    10.705    63.0    6.742  134.833       93      1.64    0.000    0.000
     8     5  1993   107    4    19.9    1.00     -9      0     -9      0      0    65.4    65.4      0     0.72      4.5      4.5      4.5   100    17.4    10.831    63.0    6.821  136.414       93      1.64    0.000    0.000
     9     5  1993   108    4    20.1    1.00     -9      0     -9      0      0    64.3    64.3      0     0.70      4.1      4.1      4.1   100    17.4    10.953    63.0    6.897  137.950       93      1.64    0.000    0.000
    10     5  1993   109    4    19.9    1.00     -9      0     -9      0      0    63.1    63.1      0     0.68      4.2      4.2      4.2   100    17.4    11.071    63.0    6.972  139.436       93      1.64    0.000    0.000
    11     5  1993   110    4    19.8    1.00     -9      0     -9      0      0    61.8    61.8      0     0.65      3.8      3.8      3.8   100    17.4    11.184    63.0    7.044  140.871       93      1.64    0.000    0.000

Legend

DAP          : Days after planting
Stage        : 0: before/after planting
Stage        : 1: emergence or transplant recovery
Stage        : 2: vegetative stage
Stage        : 3: flowering
Stage        : 4: yield formation and ripening
GD           : Growing degrees
Z            : Effective rooting depth
StExp        : Percent water stress reducing leaf expansion
StSto        : Percent water stress inducing stomatal closure
StSen        : Percent water stress triggering early canopy senescence
StSalt       : Percent salinity stress
StWeed       : Relative cover of weeds
CC           : Green total Canopy Cover of crop and weeds
CCw          : Green crop Canopy Cover in weed infested field
StTr         : Percent temperature stress affecting crop transpiration
Kc(Tr)       : Crop coefficient for transpiration
Trx          : Maximum total transpiration of crop and weeds
Tr           : Total transpiration of crop and weeds
TrW          : Crop transpiration in weed infested field
Tr/Trx       : Relative total transpiration of crop and weeds (100 Tr/Trx)
WP           : Crop water productivity adjusted for CO2, soil fertility and products synthesized
Biomass      : Total above-ground dry biomass
HI           : Harvest Index adjusted for failure of pollination, inadequate photosynthesis and water stress
Y(dry)       : Dry crop yield (HI x Biomass)
Y(fresh)     : Fresh crop yield
Brelative    : Relative biomass (Reference: no water, no soil fertility, no soil salinity stress, no weed infestation)
WPet         : ET Water productivity for yield part (kg yield produced per m3 water evapotranspired)
Bin          : Daily mass of assimilates remobilized from below-ground organs at start of season
Bout         : Daily mass of assimilates stored in below-ground organs at end of season
