AquaCrop 7.2 (August 2024) - Output created on (date) : 04-12-2024   at (time) : 03:56:11 PM
Soil salinity in soil profile and root zone

** Run number:  1   -- Salt balance for soil profile (Total layer: 0.00 - 1.20 m) and soil salinity in root zone (Z)
   Day Month  Year   DAP Stage   SaltIn    SaltOut   SaltUp    SaltTot    SaltZ     Z       ECe    ECsw   StSalt  Zgwt    ECgw
                                 ton/ha    ton/ha    ton/ha    ton/ha    ton/ha     m      dS/m    dS/m      %     m      dS/m
    22     1  1993     1    1     0.000     0.000     0.000     0.000     0.000    0.30    0.00    0.00      0   -9.90   -9.00
    23     1  1993     2    1     0.000     0.000     0.000     0.000     0.000    0.30    0.00    0.00      0   -9.90   -9.00
    24     1  1993     3    1     0.000     0.000     0.000     0.000     0.000    0.30    0.00    0.00      0   -9.90   -9.00
    25     1  1993     4    1     0.000     0.000     0.000     0.000     0.000    0.30    0.00    0.00      0   -9.90   -9.00
    26     1  1993     5    2     0.000     0.000     0.000     0.000     0.000    0.33    0.00    0.00      0   -9.90   -9.00
    27     1  1993     6    2     0.000     0.000     0.000     0.000     0.000    0.35    0.00    0.00      0   -9.90   -9.00
    28     1  1993     7    2     0.000     0.000     0.000     0.000     0.000    0.37    0.00    0.00      0   -9.90   -9.00
    29     1  1993     8    2     0.000     0.000     0.000     0.000     0.000    0.39    0.00    0.00      0   -9.90   -9.00
    30     1  1993     9    2     0.000     0.000     0.000     0.000     0.000    0.41    0.00    0.00      0   -9.90   -9.00
    31     1  1993    10    2     0.000     0.000     0.000     0.000     0.000    0.43    0.00    0.00      0   -9.90   -9.00
     1     2  1993    11    2     0.000     0.000     0.000     0.000     0.000    0.45    0.00    0.00      0   -9.90   -9.00
     2     2  1993    12    2     0.000     0.000     0.000     0.000     0.000    0.47    0.00    0.00      0   -9.90   -9.00
     3     2  1993    13    2     0.000     0.000     0.000     0.000     0.000    0.49    0.00    0.00      0   -9.90   -9.00
     4     2  1993    14    2     0.000     0.000     0.000     0.000     0.000    0.50    0.00    0.00      0   -9.90   -9.00
     5     2  1993    15    2     0.000     0.000     0.000     0.000     0.000    0.52    0.00    0.00      0   -9.90   -9.00
     6     2  1993    16    2     0.000     0.000     0.000     0.000     0.000    0.54    0.00    0.00      0   -9.90   -9.00
     7     2  1993    17    2     0.000     0.000     0.000     0.000     0.000    0.55    0.00    0.00      0   -9.90   -9.00
     8     2  1993    18    2     0.000     0.000     0.000     0.000     0.000    0.57    0.00    0.00      0   -9.90   -9.00
     9     2  1993    19    2     0.000     0.000     0.000     0.000     0.000    0.58    0.00    0.00      0   -9.90   -9.00
    10     2  1993    20    2     0.000     0.000     0.000     0.000     0.000    0.59    0.00    0.00      0   -9.90   -9.00
    11     2  1993    21    2     0.000     0.000     0.000     0.000     0.000    0.61    0.00    0.00      0   -9.90   -9.00
    12     2  1993    22    2     0.000     0.000     0.000     0.000     0.000    0.62    0.00    0.00      0   -9.90   -9.00
    13     2  1993    23    2     0.000     0.000     0.000     0.000     0.000    0.64    0.00    0.00      0   -9.90   -9.00
    14     2  1993    24    2     0.000     0.000     0.000     0.000     0.000    0.65    0.00    0.00      0   -9.90   -9.00
    15     2  1993    25    2     0.000     0.000     0.000     0.000     0.000    0.66    0.00    0.00      0   -9.90   -9.00
    16     2  1993    26    2     0.000     0.000     0.000     0.000     0.000    0.68    0.00    0.00      0   -9.90   -9.00
    17     2  1993    27    2     0.000     0.000     0.000     0.000     0.000    0.69    0.00    0.00      0   -9.90   -9.00
    18     2  1993    28    2     0.000     0.000     0.000     0.000     0.000    0.70    0.00    0.00      0   -9.90   -9.00
    19     2  1993    29    2     0.000     0.000     0.000     0.000     0.000    0.71    0.00    0.00      0   -9.90   -9.00
    20     2  1993    30    2     0.000     0.000     0.000     0.000     0.000    0.73    0.00    0.00      0   -9.90   -9.00
    21     2  1993    31    2     0.000     0.000     0.000     0.000     0.000    0.74    0.00    0.00      0   -9.90   -9.00
    22     2  1993    32    2     0.000     0.000     0.000     0.000     0.000    0.75    0.00    0.00      0   -9.90   -9.00
    23     2  1993    33    2     0.000     0.000     0.000     0.000     0.000    0.76    0.00    0.00      0   -9.90   -9.00
    24     2  1993    34    2     0.000     0.000     0.000     0.000     0.000    0.77    0.00    0.00      0   -9.90   -9.00
    25     2  1993    35    3     0.000     0.000     0.000     0.000     0.000    0.79    0.00    0.00      0   -9.90   -9.00
    26     2  1993    36    3     0.000     0.000     0.000     0.000     0.000    0.80    0.00    0.00      0   -9.90   -9.00
    27     2  1993    37    3     0.000     0.000     0.000     0.000     0.000    0.81    0.00    0.00      0   -9.90   -9.00
    28     2  1993    38    3     0.000     0.000     0.000     0.000     0.000    0.82    0.00    0.00      0   -9.90   -9.00
     1     3  1993    39    3     0.000     0.000     0.000     0.000     0.000    0.83    0.00    0.00      0   -9.90   -9.00
     2     3  1993    40    3     0.000     0.000     0.000     0.000     0.000    0.84    0.00    0.00      0   -9.90   -9.00
     3     3  1993    41    3     0.000     0.000     0.000     0.000     0.000    0.85    0.00    0.00      0   -9.90   -9.00
     4     3  1993    42    3     0.000     0.000     0.000     0.000     0.000    0.86    0.00    0.00      0   -9.90   -9.00
     5     3  1993    43    3     0.000     0.000     0.000     0.000     0.000    0.88    0.00    0.00      0   -9.90   -9.00
     6     3  1993    44    3     0.000     0.000     0.000     0.000     0.000    0.89    0.00    0.00      0   -9.90   -9.00
     7     3  1993    45    3     0.000     0.000     0.000     0.000     0.000    0.90    0.00    0.00      0   -9.90   -9.00
     8     3  1993    46    3     0.000     0.000     0.000     0.000     0.000    0.91    0.00    0.00      0   -9.90   -9.00
     9     3  1993    47    3     0.000     0.000     0.000     0.000     0.000    0.92    0.00    0.00      0   -9.90   -9.00
    10     3  1993    48    3     0.000     0.000     0.000     0.000     0.000    0.93    0.00    0.00      0   -9.90   -9.00
    11     3  1993    49    3     0.000     0.000     0.000     0.000     0.000    0.94    0.00    0.00      0   -9.90   -9.00
    12     3  1993    50    3     0.000     0.000     0.000     0.000     0.000    0.95    0.00    0.00      0   -9.90   -9.00
    13     3  1993    51    3     0.000     0.000     0.000     0.000     0.000    0.96    0.00    0.00      0   -9.90   -9.00
    14     3  1993    52    3     0.000     0.000     0.000     0.000     0.000    0.97    0.00    0.00      0   -9.90   -9.00
    15     3  1993    53    3     0.000     0.000     0.000     0.000     0.000    0.98    0.00    0.00      0   -9.90   -9.00
    16     3  1993    54    3     0.000     0.000     0.000     0.000     0.000    0.99    0.00    0.00      0   -9.90   -9.00
    17     3  1993    55    3     0.000     0.000     0.000     0.000     0.000    1.00    0.00    0.00      0   -9.90   -9.00
    18     3  1993    56    3     0.000     0.000     0.000     0.000     0.000    1.00    0.00    0.00      0   -9.90   -9.00
    19     3  1993    57    3     0.000     0.000     0.000     0.000     0.000    1.00    0.00    0.00      0   -9.90   -9.00
    20     3  1993    58    3     0.000     0.000     0.000     0.000     0.000    1.00    0.00    0.00      0   -9.90   -9.00
    21     3  1993    59    3     0.000     0.000     0.000     0.000     0.000    1.00    0.00    0.00      0   -9.90   -9.00
    22     3  1993    60    3     0.000     0.000     0.000     0.000     0.000    1.00    0.00    0.00      0   -9.90   -9.00
    23     3  1993    61    3     0.000     0.000     0.000     0.000     0.000    1.00    0.00    0.00      0   -9.90   -9.00
    24     3  1993    62    3     0.000     0.000     0.000     0.000     0.000    1.00    0.00    0.00      0   -9.90   -9.00
    25     3  1993    63    3     0.000     0.000     0.000     0.000     0.000    1.00    0.00    0.00      0   -9.90   -9.00
    26     3  1993    64    3     0.000     0.000     0.000     0.000     0.000    1.00    0.00    0.00      0   -9.90   -9.00
    27     3  1993    65    3     0.000     0.000     0.000     0.000     0.000    1.00    0.00    0.00      0   -9.90   -9.00
    28     3  1993    66    3     0.000     0.000     0.000     0.000     0.000    1.00    0.00    0.00      0   -9.90   -9.00
    29     3  1993    67    3     0.000     0.000     0.000     0.000     0.000    1.00    0.00    0.00      0   -9.90   -9.00
    30     3  1993    68    3     0.000     0.000     0.000     0.000     0.000    1.00    0.00    0.00      0   -9.90   -9.00
    31     3  1993    69    3     0.000     0.000     0.000     0.000     0.000    1.00    0.00    0.00      0   -9.90   -9.00
     1     4  1993    70    3     0.000     0.000     0.000     0.000     0.000    1.00    0.00    0.00      0   -9.90   -9.00
     2     4  1993    71    3     0.000     0.000     0.000     0.000     0.000    1.00    0.00    0.00      0   -9.90   -9.00
     3     4  1993    72    3     0.000     0.000     0.000     0.000     0.000    1.00    0.00    0.00      0   -9.90   -9.00
     4     4  1993    73    3     0.000     0.000     0.000     0.000     0.000    1.00    0.00    0.00      0   -9.90   -9.00
     5     4  1993    74    3     0.000     0.000     0.000     0.000     0.000    1.00    0.00    0.00      0   -9.90   -9.00
     6     4  1993    75    3     0.000     0.000     0.000     0.000     0.000    1.00    0.00    0.00      0   -9.90   -9.00
     7     4  1993    76    3     0.000     0.000     0.000     0.000     0.000    1.00    0.00    0.00      0   -9.90   -9.00
     8     4  1993    77    4     0.000     0.000     0.000     0.000     0.000    1.00    0.00    0.00      0   -9.90   -9.00
     9     4  1993    78    4     0.000     0.000     0.000     0.000     0.000    1.00    0.00    0.00      0   -9.90   -9.00
    10     4  1993    79    4     0.000     0.000     0.000     0.000     0.000    1.00    0.00    0.00      0   -9.90   -9.00
    11     4  1993    80    4     0.000     0.000     0.000     0.000     0.000    1.00    0.00    0.00      0   -9.90   -9.00
    12     4  1993    81    4     0.000     0.000     0.000     0.000     0.000    1.00    0.00    0.00      0   -9.90   -9.00
    13     4  1993    82    4     0.000     0.000     0.000     0.000     0.000    1.00    0.00    0.00      0   -9.90   -9.00
    14     4  1993    83    4     0.000     0.000     0.000     0.000     0.000    1.00    0.00    0.00      0   -9.90   -9.00
    15     4  1993    84    4     0.000     0.000     0.000     0.000     0.000    1.00    0.00    0.00      0   -9.90   -9.00
    16     4  1993    85    4     0.000     0.000     0.000     0.000     0.000    1.00    0.00    0.00      0   -9.90   -9.00
    17     4  1993    86    4     0.000     0.000     0.000     0.000     0.000    1.00    0.00    0.00      0   -9.90   -9.00
    18     4  1993    87    4     0.000     0.000     0.000     0.000     0.000    1.00    0.00    0.00      0   -9.90   -9.00
    19     4  1993    88    4     0.000     0.000     0.000     0.000     0.000    1.00    0.00    0.00      0   -9.90   -9.00
    20     4  1993    89    4     0.000     0.000     0.000     0.000     0.000    1.00    0.00    0.00      0   -9.90   -9.00
    21     4  1993    90    4     0.000     0.000     0.000     0.000     0.000    1.00    0.00    0.00      0   -9.90   -9.00
    22     4  1993    91    4     0.000     0.000     0.000     0.000     0.000    1.00    0.00    0.00      0   -9.90   -9.00
    23     4  1993    92    4     0.000     0.000     0.000     0.000     0.000    1.00    0.00    0.00      0   -9.90   -9.00
    24     4  1993    93    4     0.000     0.000     0.000     0.000     0.000    1.00    0.00    0.00      0   -9.90   -9.00
    25     4  1993    94    4     0.000     0.000     0.000     0.000     0.000    1.00    0.00    0.00      0   -9.90   -9.00
    26     4  1993    95    4     0.000     0.000     0.000     0.000     0.000    1.00    0.00    0.00      0   -9.90   -9.00
    27     4  1993    96    4     0.000     0.000     0.000     0.000     0.000    1.00    0.00    0.00      0   -9.90   -9.00
    28     4  1993    97    4     0.000     0.000     0.000     0.000     0.000    1.00    0.00    0.00      0   -9.90   -9.00
    29     4  1993    98    4     0.000     0.000     0.000     0.000     0.000    1.00    0.00    0.00      0   -9.90   -9.00
    30     4  1993    99    4     0.000     0.000     0.000     0.000     0.000    1.00    0.00    0.00      0   -9.90   -9.00
     1     5  1993   100    4     0.000     0.000     0.000     0.000     0.000    1.00    0.00    0.00      0   -9.90   -9.00
     2     5  1993   101    4     0.000     0.000     0.000     0.000     0.000    1.00    0.00    0.00      0   -9.90   -9.00
     3     5  1993   102    4     0.000     0.000     0.000     0.000     0.000    1.00    0.00    0.00      0   -9.90   -9.00
     4     5  1993   103    4     0.000     0.000     0.000     0.000     0.000    1.00    0.00    0.00      0   -9.90   -9.00
     5     5  1993   104    4     0.000     0.000     0.000     0.000     0.000    1.00    0.00    0.00      0   -9.90   -9.00
     6     5  1993   105    4     0.000     0.000     0.000     0.000     0.000    1.00    0.00    0.00      0   -9.90   -9.00
     7     5  1993   106    4     0.000     0.000     0.000     0.000     0.000    1.00    0.00    0.00      0   -9.90   -9.00
     8     5  1993   107    4     0.000     0.000     0.000     0.000     0.000    1.00    0.00    0.00      0   -9.90   -9.00
     9     5  1993   108    4     0.000     0.000     0.000     0.000     0.000    1.00    0.00    0.00      0   -9.90   -9.00
    10     5  1993   109    4     0.000     0.000     0.000     0.000     0.000    1.00    0.00    0.00      0   -9.90   -9.00
    11     5  1993   110    4     0.000     0.000     0.000     0.000     0.000    1.00    0.00    0.00      0   -9.90   -9.00

Legend

DAP          : Days after planting
Stage        : 0: before/after planting
Stage        : 1: emergence or transplant recovery
Stage        : 2: vegetative stage
Stage        : 3: flowering
Stage        : 4: yield formation and ripening
SaltIn       : Salt infiltrated in the soil profile
SaltOut      : Salt drained out of the soil profile
SaltUp       : Salt moved upward from the groundwater table
SaltTot      : Salt content in the total soil profile (layer: 0.00 - 1.20 m)
SaltZ        : Salt content in the effective root zone
Z            : Effective rooting depth
ECe          : Electrical conductivity of the saturated soil-paste extract from the root zone
ECsw         : Electrical conductivity of the soil water in the root zone
StSalt       : Salinity stress
Zgwt         : Depth of the groundwater table (-9.90 if absent)
ECgw         : Electrical conductivity of the groundwater
