AquaCrop 7.2 (August 2024) - Output created on (date) : 04-12-2024   at (time) : 03:56:11 PM
Soil Water balance

** Run number:  1
   Day Month  Year   DAP Stage     WCTot    Rain     Irri   Surf   Infilt   RO    Drain       CR    Zgwt       Ex       E     E/Ex    Trx       Tr  Tr/Trx    ETx      ET   ET/ETx
                                      mm      mm       mm     mm     mm     mm       mm       mm      m        mm       mm     %       mm       mm    %        mm      mm      %
    22     1  1993     1    1      259.9     0.0      0.0    0.0    0.0    0.0      0.0      0.0   -9.90      5.7      4.1    71      0.0      0.0   100      5.7     4.1     71
    23     1  1993     2    1      257.6     0.0      0.0    0.0    0.0    0.0      0.0      0.0   -9.90      5.6      2.4    42      0.0      0.0   100      5.6     2.4     42
    24     1  1993     3    1      255.9     0.0      0.0    0.0    0.0    0.0      0.0      0.0   -9.90      5.6      1.7    30      0.0      0.0   100      5.6     1.7     30
    25     1  1993     4    1      254.7     0.0      0.0    0.0    0.0    0.0      0.0      0.0   -9.90      4.6      1.1    24      0.0      0.0   100      4.6     1.1     24
    26     1  1993     5    2      253.6     0.0      0.0    0.0    0.0    0.0      0.0      0.0   -9.90      5.4      1.1    20      0.1      0.1   100      5.5     1.2     21
    27     1  1993     6    2      252.6     0.0      0.0    0.0    0.0    0.0      0.0      0.0   -9.90      5.7      0.9    17      0.1      0.1   100      5.8     1.0     18
    28     1  1993     7    2      251.6     0.0      0.0    0.0    0.0    0.0      0.0      0.0   -9.90      6.0      0.8    14      0.1      0.1   100      6.1     0.9     15
    29     1  1993     8    2      251.0     0.0      0.0    0.0    0.0    0.0      0.0      0.0   -9.90      4.8      0.6    12      0.1      0.1   100      4.8     0.7     14
    30     1  1993     9    2      250.3     0.0      0.0    0.0    0.0    0.0      0.0      0.0   -9.90      5.3      0.6    11      0.1      0.1   100      5.4     0.7     13
    31     1  1993    10    2      249.6     0.0      0.0    0.0    0.0    0.0      0.0      0.0   -9.90      5.6      0.5    10      0.1      0.1   100      5.7     0.7     12
     1     2  1993    11    2      249.0     0.0      0.0    0.0    0.0    0.0      0.0      0.0   -9.90      5.6      0.5     9      0.1      0.1   100      5.7     0.6     11
     2     2  1993    12    2      248.5     0.0      0.0    0.0    0.0    0.0      0.0      0.0   -9.90      4.2      0.3     8      0.1      0.1   100      4.3     0.5     11
     3     2  1993    13    2      248.0     0.0      0.0    0.0    0.0    0.0      0.0      0.0   -9.90      5.3      0.4     7      0.2      0.2   100      5.5     0.6     10
     4     2  1993    14    2      247.3     0.0      0.0    0.0    0.0    0.0      0.0      0.0   -9.90      5.9      0.4     7      0.2      0.2   100      6.2     0.6     10
     5     2  1993    15    2      246.7     0.0      0.0    0.0    0.0    0.0      0.0      0.0   -9.90      5.7      0.4     7      0.2      0.2   100      5.9     0.6     10
     6     2  1993    16    2      246.1     0.0      0.0    0.0    0.0    0.0      0.0      0.0   -9.90      5.3      0.3     6      0.2      0.2   100      5.5     0.6     11
     7     2  1993    17    2      245.5     0.0      0.0    0.0    0.0    0.0      0.0      0.0   -9.90      5.6      0.3     6      0.3      0.3   100      5.9     0.6     11
     8     2  1993    18    2      244.9     0.0      0.0    0.0    0.0    0.0      0.0      0.0   -9.90      5.0      0.3     6      0.3      0.3   100      5.3     0.6     11
     9     2  1993    19    2      244.2     0.0      0.0    0.0    0.0    0.0      0.0      0.0   -9.90      5.2      0.3     6      0.3      0.3   100      5.5     0.6     12
    10     2  1993    20    2      243.6     0.0      0.0    0.0    0.0    0.0      0.0      0.0   -9.90      4.9      0.3     5      0.4      0.4   100      5.3     0.6     12
    11     2  1993    21    2      242.9     0.0      0.0    0.0    0.0    0.0      0.0      0.0   -9.90      5.2      0.3     5      0.4      0.4   100      5.6     0.7     13
    12     2  1993    22    2      242.3     0.0      0.0    0.0    0.0    0.0      0.0      0.0   -9.90      4.3      0.2     5      0.4      0.4   100      4.7     0.6     13
    13     2  1993    23    2      241.5     0.0      0.0    0.0    0.0    0.0      0.0      0.0   -9.90      5.1      0.2     5      0.5      0.5   100      5.6     0.8     14
    14     2  1993    24    2      240.7     0.0      0.0    0.0    0.0    0.0      0.0      0.0   -9.90      4.8      0.2     4      0.6      0.6   100      5.4     0.8     15
    15     2  1993    25    2      239.9     0.0      0.0    0.0    0.0    0.0      0.0      0.0   -9.90      4.4      0.2     4      0.6      0.6   100      5.0     0.8     16
    16     2  1993    26    2      239.0     0.0      0.0    0.0    0.0    0.0      0.0      0.0   -9.90      5.1      0.2     4      0.8      0.8   100      5.8     1.0     17
    17     2  1993    27    2      237.9     0.0      0.0    0.0    0.0    0.0      0.0      0.0   -9.90      5.2      0.2     3      0.9      0.9   100      6.1     1.1     18
    18     2  1993    28    2      236.9     0.0      0.0    0.0    0.0    0.0      0.0      0.0   -9.90      4.4      0.1     3      0.9      0.9   100      5.3     1.0     19
    19     2  1993    29    2      235.8     0.0      0.0    0.0    0.0    0.0      0.0      0.0   -9.90      4.3      0.1     3      1.0      1.0   100      5.3     1.1     20
    20     2  1993    30    2      234.6     0.0      0.0    0.0    0.0    0.0      0.0      0.0   -9.90      4.4      0.1     3      1.1      1.1   100      5.5     1.2     22
    21     2  1993    31    2      233.3     0.0      0.0    0.0    0.0    0.0      0.0      0.0   -9.90      4.2      0.1     2      1.2      1.2   100      5.4     1.3     24
    22     2  1993    32    2      231.9     0.0      0.0    0.0    0.0    0.0      0.0      0.0   -9.90      4.2      0.1     2      1.3      1.3   100      5.5     1.4     26
    23     2  1993    33    2      230.5     0.0      0.0    0.0    0.0    0.0      0.0      0.0   -9.90      3.7      0.1     2      1.3      1.3   100      5.1     1.4     28
    24     2  1993    34    2      228.9     0.0      0.0    0.0    0.0    0.0      0.0      0.0   -9.90      3.7      0.1     2      1.5      1.5   100      5.2     1.6     31
    25     2  1993    35    3      227.1     0.0      0.0    0.0    0.0    0.0      0.0      0.0   -9.90      3.7      0.1     2      1.7      1.7   100      5.4     1.8     33
    26     2  1993    36    3      224.8     0.0      0.0    0.0    0.0    0.0      0.0      0.0   -9.90      4.4      0.1     2      2.3      2.3   100      6.7     2.4     35
    27     2  1993    37    3      222.3     0.0      0.0    0.0    0.0    0.0      0.0      0.0   -9.90      4.1      0.1     2      2.4      2.4   100      6.5     2.4     37
    28     2  1993    38    3      219.7     0.0      0.0    0.0    0.0    0.0      0.0      0.0   -9.90      4.1      0.1     1      2.5      2.5   100      6.6     2.6     39
     1     3  1993    39    3      217.0     0.0      0.0    0.0    0.0    0.0      0.0      0.0   -9.90      3.9      0.1     1      2.7      2.7   100      6.6     2.7     41
     2     3  1993    40    3      214.2     0.0      0.0    0.0    0.0    0.0      0.0      0.0   -9.90      3.9      0.1     1      2.8      2.8   100      6.7     2.9     42
     3     3  1993    41    3      211.5     0.0      0.0    0.0    0.0    0.0      0.0      0.0   -9.90      3.6      0.0     1      2.7      2.7    98      6.4     2.7     43
     4     3  1993    42    3      208.7     0.0      0.0    0.0    0.0    0.0      0.0      0.0   -9.90      3.9      0.1     1      2.9      2.7    92      6.8     2.8     40
     5     3  1993    43    3      264.4     0.0     62.1    0.0   62.1    0.0      0.0      0.0   -9.90      3.3      3.3   100      3.0      3.0   100      6.4     6.4    100
     6     3  1993    44    3      258.4     0.0      0.0    0.0    0.0    0.0      0.0      0.0   -9.90      2.9      2.9   100      3.2      3.2   100      6.1     6.1    100
     7     3  1993    45    3      252.7     0.0      0.0    0.0    0.0    0.0      0.0      0.0   -9.90      2.5      2.3    89      3.4      3.4   100      5.9     5.7     95
     8     3  1993    46    3      248.4     0.0      0.0    0.0    0.0    0.0      0.0      0.0   -9.90      2.3      0.7    32      3.6      3.6   100      5.8     4.3     73
     9     3  1993    47    3      244.2     0.0      0.0    0.0    0.0    0.0      0.0      0.0   -9.90      2.1      0.4    19      3.8      3.8   100      5.9     4.2     71
    10     3  1993    48    3      239.6     0.0      0.0    0.0    0.0    0.0      0.0      0.0   -9.90      2.2      0.2    11      4.4      4.4   100      6.6     4.7     70
    11     3  1993    49    3      234.7     0.0      0.0    0.0    0.0    0.0      0.0      0.0   -9.90      2.1      0.1     6      4.8      4.8   100      6.9     4.9     71
    12     3  1993    50    3      230.1     0.0      0.0    0.0    0.0    0.0      0.0      0.0   -9.90      1.8      0.1     5      4.4      4.4   100      6.3     4.5     72
    13     3  1993    51    3      225.9     0.0      0.0    0.0    0.0    0.0      0.0      0.0   -9.90      1.6      0.1     5      4.1      4.1   100      5.7     4.2     74
    14     3  1993    52    3      221.3     0.0      0.0    0.0    0.0    0.0      0.0      0.0   -9.90      1.6      0.1     5      4.5      4.5   100      6.2     4.6     75
    15     3  1993    53    3      216.6     0.0      0.0    0.0    0.0    0.0      0.0      0.0   -9.90      1.5      0.1     5      4.6      4.6   100      6.2     4.7     76
    16     3  1993    54    3      213.0     0.0      0.0    0.0    0.0    0.0      0.0      0.0   -9.90      1.1      0.1     5      3.5      3.5   100      4.6     3.6     77
    17     3  1993    55    3      209.0     0.0      0.0    0.0    0.0    0.0      0.0      0.0   -9.90      1.2      0.1     5      4.0      4.0   100      5.2     4.0     78
    18     3  1993    56    3      216.7    13.8      0.0    0.0   13.8    0.0      0.0      0.0   -9.90      1.4      1.4   100      4.8      4.8   100      6.2     6.2    100
    19     3  1993    57    3      211.6     0.0      0.0    0.0    0.0    0.0      0.0      0.0   -9.90      1.1      1.1   100      4.0      4.0   100      5.1     5.1    100
    20     3  1993    58    3      206.3     0.0      0.0    0.0    0.0    0.0      0.0      0.0   -9.90      1.1      1.1   100      4.2      4.2   100      5.3     5.3    100
    21     3  1993    59    3      264.2     0.0     63.0    0.0   63.0    0.0      0.0      0.0   -9.90      1.0      1.0   100      4.0      4.0   100      5.1     5.1    100
    22     3  1993    60    3      259.2     0.0      0.0    0.0    0.0    0.0      0.0      0.0   -9.90      1.0      1.0   100      4.1      4.1   100      5.1     5.1    100
    23     3  1993    61    3      253.4     0.0      0.0    0.0    0.0    0.0      0.0      0.0   -9.90      1.1      1.1   100      4.6      4.6   100      5.7     5.7    100
    24     3  1993    62    3      248.3     0.0      0.0    0.0    0.0    0.0      0.0      0.0   -9.90      1.0      1.0   100      4.2      4.2   100      5.2     5.2    100
    25     3  1993    63    3      243.5     0.0      0.0    0.0    0.0    0.0      0.0      0.0   -9.90      0.9      0.9   100      3.9      3.9   100      4.7     4.7    100
    26     3  1993    64    3      237.2     0.0      0.0    0.0    0.0    0.0      0.0      0.0   -9.90      1.1      1.1   100      5.2      5.2   100      6.4     6.4    100
    27     3  1993    65    3      231.8     0.0      0.0    0.0    0.0    0.0      0.0      0.0   -9.90      0.9      0.9   100      4.5      4.5   100      5.4     5.4    100
    28     3  1993    66    3      226.4     0.0      0.0    0.0    0.0    0.0      0.0      0.0   -9.90      1.1      0.0     3      5.3      5.3   100      6.4     5.3     83
    29     3  1993    67    3      221.0     0.0      0.0    0.0    0.0    0.0      0.0      0.0   -9.90      1.1      0.0     3      5.4      5.4   100      6.5     5.4     84
    30     3  1993    68    3      215.6     0.0      0.0    0.0    0.0    0.0      0.0      0.0   -9.90      1.1      0.0     2      5.4      5.4   100      6.5     5.4     84
    31     3  1993    69    3      209.9     0.0      0.0    0.0    0.0    0.0      0.0      0.0   -9.90      1.1      0.0     2      5.7      5.7   100      6.8     5.7     84
     1     4  1993    70    3      264.8     0.0     60.9    0.0   60.9    0.0      0.0      0.0   -9.90      1.0      1.0   100      5.1      5.1   100      6.0     6.0    100
     2     4  1993    71    3      258.6     0.0      0.0    0.0    0.0    0.0      0.0      0.0   -9.90      1.0      1.0   100      5.2      5.2   100      6.1     6.1    100
     3     4  1993    72    3      251.9     0.0      0.0    0.0    0.0    0.0      0.2      0.0   -9.90      1.0      1.0   100      5.4      5.4   100      6.5     6.5    100
     4     4  1993    73    3      245.9     0.0      0.0    0.0    0.0    0.0      0.1      0.0   -9.90      0.9      0.9   100      5.0      5.0   100      5.9     5.9    100
     5     4  1993    74    3      239.8     0.0      0.0    0.0    0.0    0.0      0.0      0.0   -9.90      1.0      1.0   100      5.2      5.2   100      6.1     6.1    100
     6     4  1993    75    3      233.1     0.0      0.0    0.0    0.0    0.0      0.0      0.0   -9.90      1.0      1.0   100      5.7      5.7   100      6.7     6.7    100
     7     4  1993    76    3      226.5     0.0      0.0    0.0    0.0    0.0      0.0      0.0   -9.90      1.0      1.0   100      5.6      5.6   100      6.6     6.6    100
     8     4  1993    77    4      220.5     0.0      0.0    0.0    0.0    0.0      0.0      0.0   -9.90      1.0      0.1    12      5.9      5.9   100      6.9     6.0     87
     9     4  1993    78    4      214.8     0.0      0.0    0.0    0.0    0.0      0.0      0.0   -9.90      1.0      0.0     2      5.8      5.8   100      6.8     5.8     85
    10     4  1993    79    4      209.2     0.0      0.0    0.0    0.0    0.0      0.0      0.0   -9.90      1.0      0.0     2      5.6      5.6   100      6.5     5.6     85
    11     4  1993    80    4      209.9     4.0      0.0    0.0    4.0    0.0      0.0      0.0   -9.90      0.5      0.5   100      2.8      2.8   100      3.3     3.3    100
    12     4  1993    81    4      204.0     0.0      0.0    0.0    0.0    0.0      0.0      0.0   -9.90      0.9      0.9   100      5.0      5.0   100      5.9     5.9    100
    13     4  1993    82    4      263.4     0.0     65.9    0.0   65.9    0.0      0.0      0.0   -9.90      1.0      1.0   100      5.6      5.6   100      6.5     6.5    100
    14     4  1993    83    4      256.7     0.0      0.0    0.0    0.0    0.0      0.0      0.0   -9.90      1.0      1.0   100      5.6      5.6   100      6.6     6.6    100
    15     4  1993    84    4      251.5     0.0      0.0    0.0    0.0    0.0      0.0      0.0   -9.90      0.8      0.8   100      4.4      4.4   100      5.2     5.2    100
    16     4  1993    85    4      244.6     0.0      0.0    0.0    0.0    0.0      0.0      0.0   -9.90      1.0      1.0   100      5.9      5.9   100      6.9     6.9    100
    17     4  1993    86    4      239.2     0.0      0.0    0.0    0.0    0.0      0.0      0.0   -9.90      0.8      0.8   100      4.6      4.6   100      5.4     5.4    100
    18     4  1993    87    4      234.1     0.0      0.0    0.0    0.0    0.0      0.0      0.0   -9.90      0.8      0.8   100      4.3      4.3   100      5.1     5.1    100
    19     4  1993    88    4      228.1     0.0      0.0    0.0    0.0    0.0      0.0      0.0   -9.90      0.9      0.9   100      5.1      5.1   100      5.9     5.9    100
    20     4  1993    89    4      222.3     0.0      0.0    0.0    0.0    0.0      0.0      0.0   -9.90      0.9      0.8    89      5.1      5.1   100      5.9     5.8     98
    21     4  1993    90    4      217.4     0.0      0.0    0.0    0.0    0.0      0.0      0.0   -9.90      0.9      0.0     3      4.9      4.9   100      5.7     4.9     85
    22     4  1993    91    4      212.2     0.0      0.0    0.0    0.0    0.0      0.0      0.0   -9.90      0.9      0.0     2      5.1      5.1   100      6.0     5.2     85
    23     4  1993    92    4      206.7     0.0      0.0    0.0    0.0    0.0      0.0      0.0   -9.90      1.0      0.0     2      5.5      5.5   100      6.4     5.5     85
    24     4  1993    93    4      264.5     0.0     63.7    0.0   63.7    0.0      0.0      0.0   -9.90      0.9      0.9   100      5.1      5.1   100      6.0     6.0    100
    25     4  1993    94    4      258.1     0.0      0.0    0.0    0.0    0.0      0.0      0.0   -9.90      1.0      1.0   100      5.4      5.4   100      6.4     6.4    100
    26     4  1993    95    4      251.5     0.0      0.0    0.0    0.0    0.0      0.0      0.0   -9.90      1.0      1.0   100      5.5      5.5   100      6.5     6.5    100
    27     4  1993    96    4      245.2     0.0      0.0    0.0    0.0    0.0      0.0      0.0   -9.90      1.0      1.0   100      5.3      5.3   100      6.4     6.4    100
    28     4  1993    97    4      239.1     0.0      0.0    0.0    0.0    0.0      0.0      0.0   -9.90      1.0      1.0   100      5.0      5.0   100      6.0     6.0    100
    29     4  1993    98    4      233.7     0.0      0.0    0.0    0.0    0.0      0.0      0.0   -9.90      0.9      0.9   100      4.5      4.5   100      5.4     5.4    100
    30     4  1993    99    4      226.8     0.0      0.0    0.0    0.0    0.0      0.0      0.0   -9.90      1.3      1.1    83      5.9      5.9   100      7.2     7.0     97
     1     5  1993   100    4      220.8     0.0      0.0    0.0    0.0    0.0      0.0      0.0   -9.90      1.3      0.0     3      5.9      5.9   100      7.2     5.9     82
     2     5  1993   101    4      215.0     0.0      0.0    0.0    0.0    0.0      0.0      0.0   -9.90      1.3      0.0     2      5.7      5.7   100      7.0     5.8     82
     3     5  1993   102    4      209.6     0.0      0.0    0.0    0.0    0.0      0.0      0.0   -9.90      1.3      0.0     2      5.4      5.4   100      6.7     5.4     81
     4     5  1993   103    4      265.0     0.0     61.1    0.0   61.1    0.0      0.0      0.0   -9.90      1.1      1.1   100      4.6      4.6   100      5.7     5.7    100
     5     5  1993   104    4      259.1     0.0      0.0    0.0    0.0    0.0      0.0      0.0   -9.90      1.2      1.2   100      4.6      4.6   100      5.8     5.8    100
     6     5  1993   105    4      252.8     0.0      0.0    0.0    0.0    0.0      0.4      0.0   -9.90      1.2      1.2   100      4.6      4.6   100      5.9     5.9    100
     7     5  1993   106    4      246.4     0.0      0.0    0.0    0.0    0.0      0.1      0.0   -9.90      1.4      1.4   100      4.9      4.9   100      6.3     6.3    100
     8     5  1993   107    4      240.5     0.0      0.0    0.0    0.0    0.0      0.0      0.0   -9.90      1.3      1.3   100      4.5      4.5   100      5.9     5.9    100
     9     5  1993   108    4      235.7     0.0      0.0    0.0    0.0    0.0      0.0      0.0   -9.90      1.3      0.7    59      4.1      4.1   100      5.3     4.8     90
    10     5  1993   109    4      231.5     0.0      0.0    0.0    0.0    0.0      0.0      0.0   -9.90      1.4      0.0     3      4.2      4.2   100      5.6     4.2     76
    11     5  1993   110    4      227.7     0.0      0.0    0.0    0.0    0.0      0.0      0.0   -9.90      1.3      0.0     3      3.8      3.8   100      5.1     3.8     75

Legend

DAP          : Days after planting
Stage        : 0: before/after planting
Stage        : 1: emergence or transplant recovery
Stage        : 2: vegetative stage
Stage        : 3: flowering
Stage        : 4: yield formation and ripening
WCTot        : Water content in total soil profile
Rain         : Rainfall
Irri         : Water applied by irrigation
Surf         : Stored water on soil surface between bunds
Infilt       : Infiltrated water in soil profile
RO           : Surface runoff
Drain        : Water drained out of the soil profile
CR           : Water moved upward by capillary rise
Zgwt         : Depth of the groundwater table (-9.90 if absent)
Ex           : Maximum soil evaporation
E            : Soil evaporation
E/Ex         : Relative soil evaporation (100 E/Ex)
Trx          : Maximum crop transpiration
Tr           : Total transpiration of crop and weeds
Tr/Trx       : Relative transpiration (100 Tr/Trx)
ETx          : Evapotranspiration maximale
ET           : Evapotranspiration
ET/ETx       : Evapotranspiration relative (100 ET/ETx)
