AquaCrop 7.2 (August 2024) - Output created on (date) : 07-12-2024   at (time) : 20:43:31
Evaluation of simulation results - Statistics

  No field observation file
