AquaCrop 7.2 (August 2024) - Output created on (date) : 26/08/2024   at (time) : 15:49:54
Irrigation events and intervals during the growing period

** Run number:
   Day Month  Year   DAP Stage    Irri  IrrInt
                                    mm    days
    22     3     1     1    -9     0.0    -9
    23     3     1     2    -9     0.0    -9
    24     3     1     3    -9     0.0    -9
    25     3     1     4    -9     0.0    -9
    26     3     1     5    -9     0.0    -9
    27     3     1     6    -9     0.0    -9
    28     3     1     7    -9     0.0    -9
    29     3     1     8    -9     0.0    -9
    30     3     1     9    -9     0.0    -9
    31     3     1    10    -9     0.0    -9
     1     4     1    11    -9     0.0    -9
     2     4     1    12    -9     0.0    -9
     3     4     1    13    -9     0.0    -9
     4     4     1    14    -9     0.0    -9
     5     4     1    15    -9     0.0    -9
     6     4     1    16    -9     0.0    -9
     7     4     1    17    -9     0.0    -9
     8     4     1    18    -9     0.0    -9
     9     4     1    19    -9     0.0    -9
    10     4     1    20    -9     0.0    -9
    11     4     1    21    -9     0.0    -9
    12     4     1    22    -9     0.0    -9
    13     4     1    23    -9     0.0    -9
    14     4     1    24    -9     0.0    -9
    15     4     1    25    -9     0.0    -9
    16     4     1    26    -9     0.0    -9
    17     4     1    27    -9     0.0    -9
    18     4     1    28    -9     0.0    -9
    19     4     1    29    -9     0.0    -9
    20     4     1    30    -9     0.0    -9
    21     4     1    31    -9     0.0    -9
    22     4     1    32    -9     0.0    -9
    23     4     1    33    -9     0.0    -9
    24     4     1    34    -9     0.0    -9
    25     4     1    35    -9     0.0    -9
    26     4     1    36    -9     0.0    -9
    27     4     1    37    -9     0.0    -9
    28     4     1    38    -9     0.0    -9
    29     4     1    39    -9     0.0    -9
    30     4     1    40    -9     0.0    -9
     1     5     1    41    -9     0.0    -9
     2     5     1    42    -9     0.0    -9
     3     5     1    43    -9     0.0    -9
     4     5     1    44    -9     0.0    -9
     5     5     1    45    -9     0.0    -9
     6     5     1    46    -9     0.0    -9
     7     5     1    47    -9     0.0    -9
     8     5     1    48    -9     0.0    -9
     9     5     1    49    -9     0.0    -9
    10     5     1    50    -9     0.0    -9
    11     5     1    51    -9     0.0    -9
    12     5     1    52    -9     0.0    -9
    13     5     1    53    -9     0.0    -9
    14     5     1    54    -9     0.0    -9
    15     5     1    55    -9     0.0    -9
    16     5     1    56    -9     0.0    -9
    17     5     1    57    -9     0.0    -9
    18     5     1    58    -9     0.0    -9
    19     5     1    59    -9     0.0    -9
    20     5     1    60    -9     0.0    -9
    21     5     1    61    -9     0.0    -9
    22     5     1    62    -9     0.0    -9
    23     5     1    63    -9     0.0    -9
    24     5     1    64    -9     0.0    -9
    25     5     1    65    -9     0.0    -9
    26     5     1    66    -9     0.0    -9
    27     5     1    67    -9     0.0    -9
    28     5     1    68    -9     0.0    -9
    29     5     1    69    -9     0.0    -9
    30     5     1    70    -9     0.0    -9
    31     5     1    71    -9     0.0    -9
     1     6     1    72    -9     0.0    -9
     2     6     1    73    -9     0.0    -9
     3     6     1    74    -9     0.0    -9
     4     6     1    75    -9     0.0    -9
     5     6     1    76    -9     0.0    -9
     6     6     1    77    -9     0.0    -9
     7     6     1    78    -9     0.0    -9
     8     6     1    79    -9     0.0    -9
     9     6     1    80    -9     0.0    -9
    10     6     1    81    -9     0.0    -9
    11     6     1    82    -9     0.0    -9
    12     6     1    83    -9     0.0    -9
    13     6     1    84    -9     0.0    -9
    14     6     1    85    -9     0.0    -9
    15     6     1    86    -9     0.0    -9
    16     6     1    87    -9     0.0    -9
    17     6     1    88    -9     0.0    -9
    18     6     1    89    -9     0.0    -9
    19     6     1    90    -9     0.0    -9
    20     6     1    91    -9     0.0    -9
    21     6     1    92    -9     0.0    -9
    22     6     1    93    -9     0.0    -9
    23     6     1    94    -9     0.0    -9
    24     6     1    95    -9     0.0    -9
    25     6     1    96    -9     0.0    -9
    26     6     1    97    -9     0.0    -9
    27     6     1    98    -9     0.0    -9
    28     6     1    99    -9     0.0    -9
    29     6     1   100    -9     0.0    -9
    30     6     1   101    -9     0.0    -9
     1     7     1   102    -9     0.0    -9
     2     7     1   103    -9     0.0    -9
     3     7     1   104    -9     0.0    -9
     4     7     1   105    -9     0.0    -9
     5     7     1   106    -9     0.0    -9
     6     7     1   107    -9     0.0    -9
     7     7     1   108    -9     0.0    -9
     8     7     1   109    -9     0.0    -9
     9     7     1   110    -9     0.0    -9
    10     7     1   111    -9     0.0    -9
    11     7     1   112    -9     0.0    -9
    12     7     1   113    -9     0.0    -9
    13     7     1   114    -9     0.0    -9
    14     7     1   115    -9     0.0    -9
    15     7     1   116    -9     0.0    -9
    16     7     1   117    -9     0.0    -9
    17     7     1   118    -9     0.0    -9
    18     7     1   119    -9     0.0    -9
    19     7     1   120    -9     0.0    -9
    20     7     1   121    -9     0.0    -9
    21     7     1   122    -9     0.0    -9
    22     7     1   123    -9     0.0    -9
    23     7     1   124    -9     0.0    -9
    24     7     1   125    -9    -9.0    -9

Legend

DAP          : Days after planting
Stage        : Stage: not recorded
Irri         : Amount of water applied by irrigation during growing period
IrrInt       : Irrigation interval during growing period
