AquaCrop 7.2 (August 2024) - Output created on (date) : 07-12-2024   at (time) : 20:43:05
Soil Water Content (WC) at various depths (at center of compartments)

** Run number:  1
                 at depth (m):      0.05        0.15        0.25        0.35        0.45        0.55        0.65        0.75        0.85        0.95        1.05        1.15
   Day Month  Year   DAP Stage   WC1(vol%)   WC2(vol%)   WC3(vol%)   WC4(vol%)   WC5(vol%)   WC6(vol%)   WC7(vol%)   WC8(vol%)   WC9(vol%)  WC10(vol%)  WC11(vol%)  WC12(vol%)
    22     1  1996     1    1       18.8        22.0        22.0        22.0        22.0        22.0        22.0        22.0        22.0        22.0        22.0        22.0
    23     1  1996     2    1       16.7        22.0        22.0        22.0        22.0        22.0        22.0        22.0        22.0        22.0        22.0        22.0
    24     1  1996     3    1       14.9        22.0        22.0        22.0        22.0        22.0        22.0        22.0        22.0        22.0        22.0        22.0
    25     1  1996     4    1       13.6        22.0        22.0        22.0        22.0        22.0        22.0        22.0        22.0        22.0        22.0        22.0
    26     1  1996     5    2       12.6        22.0        22.0        22.0        22.0        22.0        22.0        22.0        22.0        22.0        22.0        22.0
    27     1  1996     6    2       11.6        22.0        22.0        22.0        22.0        22.0        22.0        22.0        22.0        22.0        22.0        22.0
    28     1  1996     7    2       10.7        22.0        22.0        22.0        22.0        22.0        22.0        22.0        22.0        22.0        22.0        22.0
    29     1  1996     8    2       10.0        21.9        22.0        22.0        22.0        22.0        22.0        22.0        22.0        22.0        22.0        22.0
    30     1  1996     9    2        9.3        21.8        22.0        22.0        22.0        22.0        22.0        22.0        22.0        22.0        22.0        22.0
    31     1  1996    10    2        8.8        21.7        22.0        22.0        22.0        22.0        22.0        22.0        22.0        22.0        22.0        22.0
     1     2  1996    11    2        8.3        21.6        22.0        22.0        22.0        22.0        22.0        22.0        22.0        22.0        22.0        22.0
     2     2  1996    12    2        7.9        21.4        22.0        22.0        22.0        22.0        22.0        22.0        22.0        22.0        22.0        22.0
     3     2  1996    13    2        7.5        21.3        22.0        22.0        22.0        22.0        22.0        22.0        22.0        22.0        22.0        22.0
     4     2  1996    14    2        7.1        21.1        22.0        22.0        22.0        22.0        22.0        22.0        22.0        22.0        22.0        22.0
     5     2  1996    15    2        6.8        20.9        22.0        22.0        22.0        22.0        22.0        22.0        22.0        22.0        22.0        22.0
     6     2  1996    16    2        6.5        20.6        22.0        22.0        22.0        22.0        22.0        22.0        22.0        22.0        22.0        22.0
     7     2  1996    17    2        6.1        20.4        22.0        22.0        22.0        22.0        22.0        22.0        22.0        22.0        22.0        22.0
     8     2  1996    18    2        5.8        20.1        22.0        22.0        22.0        22.0        22.0        22.0        22.0        22.0        22.0        22.0
     9     2  1996    19    2        5.4        19.6        22.0        22.0        22.0        22.0        22.0        22.0        22.0        22.0        22.0        22.0
    10     2  1996    20    2        5.1        19.2        22.0        22.0        22.0        22.0        22.0        22.0        22.0        22.0        22.0        22.0
    11     2  1996    21    2        5.0        18.6        22.0        22.0        22.0        22.0        22.0        22.0        22.0        22.0        22.0        22.0
    12     2  1996    22    2        5.0        18.0        22.0        22.0        22.0        22.0        22.0        22.0        22.0        22.0        22.0        22.0
    13     2  1996    23    2        5.0        17.4        22.0        22.0        22.0        22.0        22.0        22.0        22.0        22.0        22.0        22.0
    14     2  1996    24    2        5.0        16.7        22.0        22.0        22.0        22.0        22.0        22.0        22.0        22.0        22.0        22.0
    15     2  1996    25    2        5.0        15.9        22.0        22.0        22.0        22.0        22.0        22.0        22.0        22.0        22.0        22.0
    16     2  1996    26    2        5.0        15.0        22.0        22.0        22.0        22.0        22.0        22.0        22.0        22.0        22.0        22.0
    17     2  1996    27    2        5.0        14.0        22.0        22.0        22.0        22.0        22.0        22.0        22.0        22.0        22.0        22.0
    18     2  1996    28    2        5.0        12.9        22.0        22.0        22.0        22.0        22.0        22.0        22.0        22.0        22.0        22.0
    19     2  1996    29    2        5.0        11.6        22.0        22.0        22.0        22.0        22.0        22.0        22.0        22.0        22.0        22.0
    20     2  1996    30    2        5.0        10.3        22.0        22.0        22.0        22.0        22.0        22.0        22.0        22.0        22.0        22.0
    21     2  1996    31    2        5.0         9.8        21.0        22.0        22.0        22.0        22.0        22.0        22.0        22.0        22.0        22.0
    22     2  1996    32    2        5.0         9.7        19.4        22.0        22.0        22.0        22.0        22.0        22.0        22.0        22.0        22.0
    23     2  1996    33    2        5.0         9.6        17.8        22.0        22.0        22.0        22.0        22.0        22.0        22.0        22.0        22.0
    24     2  1996    34    2        5.0         9.5        15.8        22.0        22.0        22.0        22.0        22.0        22.0        22.0        22.0        22.0
    25     2  1996    35    3       34.3        15.9        15.8        22.0        22.0        22.0        22.0        22.0        22.0        22.0        22.0        22.0
    26     2  1996    36    3       15.1        22.4        21.2        22.0        22.0        22.0        22.0        22.0        22.0        22.0        22.0        22.0
    27     2  1996    37    3       10.6        22.0        21.5        22.0        22.0        22.0        22.0        22.0        22.0        22.0        22.0        22.0
    28     2  1996    38    3       10.0        18.8        21.6        22.0        22.0        22.0        22.0        22.0        22.0        22.0        22.0        22.0
    29     2  1996    39    3        9.5        14.6        21.6        22.0        22.0        22.0        22.0        22.0        22.0        22.0        22.0        22.0
     1     3  1996    40    3        9.3        10.4        21.6        22.0        22.0        22.0        22.0        22.0        22.0        22.0        22.0        22.0
     2     3  1996    41    3        9.1         9.5        18.6        22.0        22.0        22.0        22.0        22.0        22.0        22.0        22.0        22.0
     3     3  1996    42    3        9.0         9.5        14.6        21.4        22.0        22.0        22.0        22.0        22.0        22.0        22.0        22.0
     4     3  1996    43    3        9.0         9.5        10.8        21.0        22.0        22.0        22.0        22.0        22.0        22.0        22.0        22.0
     5     3  1996    44    3        8.9         9.5         9.4        18.7        22.0        22.0        22.0        22.0        22.0        22.0        22.0        22.0
     6     3  1996    45    3        8.8         9.5         9.4        15.2        21.2        22.0        22.0        22.0        22.0        22.0        22.0        22.0
     7     3  1996    46    3       34.9        29.4         9.4        15.2        21.2        22.0        22.0        22.0        22.0        22.0        22.0        22.0
     8     3  1996    47    3       15.8        22.4        22.4        21.8        21.2        22.0        22.0        22.0        22.0        22.0        22.0        22.0
     9     3  1996    48    3        9.6        22.0        22.0        22.0        21.7        22.0        22.0        22.0        22.0        22.0        22.0        22.0
    10     3  1996    49    3        8.1        17.4        22.0        22.0        21.8        22.0        22.0        22.0        22.0        22.0        22.0        22.0
    11     3  1996    50    3        7.7        12.7        21.3        22.0        21.8        22.0        22.0        22.0        22.0        22.0        22.0        22.0
    12     3  1996    51    3        7.6         9.2        19.6        22.0        21.8        22.0        22.0        22.0        22.0        22.0        22.0        22.0
    13     3  1996    52    3        7.5         9.2        15.5        20.6        21.8        22.0        22.0        22.0        22.0        22.0        22.0        22.0
    14     3  1996    53    3        7.5         9.2        11.4        19.2        21.8        22.0        22.0        22.0        22.0        22.0        22.0        22.0
    15     3  1996    54    3        7.4         9.2         9.3        15.8        21.8        22.0        22.0        22.0        22.0        22.0        22.0        22.0
    16     3  1996    55    3       34.0        26.7         9.3        15.8        21.8        22.0        22.0        22.0        22.0        22.0        22.0        22.0
    17     3  1996    56    3       15.8        21.2        22.2        18.8        21.8        22.0        22.0        22.0        22.0        22.0        22.0        22.0
    18     3  1996    57    3        9.6        18.4        22.0        19.0        21.8        22.0        22.0        22.0        22.0        22.0        22.0        22.0
    19     3  1996    58    3        8.5        13.7        21.7        19.0        21.8        22.0        22.0        22.0        22.0        22.0        22.0        22.0
    20     3  1996    59    3        7.7         9.7        21.7        19.0        21.8        22.0        22.0        22.0        22.0        22.0        22.0        22.0
    21     3  1996    60    3        7.6         9.7        17.5        17.2        21.8        22.0        22.0        22.0        22.0        22.0        22.0        22.0
    22     3  1996    61    3        7.5         9.7        13.3        14.7        21.8        22.0        22.0        22.0        22.0        22.0        22.0        22.0
    23     3  1996    62    3       34.6        26.3        13.3        14.7        21.8        22.0        22.0        22.0        22.0        22.0        22.0        22.0
    24     3  1996    63    3       16.1        21.7        22.4        21.6        21.8        22.0        22.0        22.0        22.0        22.0        22.0        22.0
    25     3  1996    64    3       10.3        21.7        22.0        22.0        21.8        22.0        22.0        22.0        22.0        22.0        22.0        22.0
    26     3  1996    65    3        9.1        17.0        20.5        22.0        21.8        22.0        22.0        22.0        22.0        22.0        22.0        22.0
    27     3  1996    66    3        7.8        12.3        18.3        22.0        21.8        22.0        22.0        22.0        22.0        22.0        22.0        22.0
    28     3  1996    67    3        6.6         9.2        14.7        22.0        21.8        22.0        22.0        22.0        22.0        22.0        22.0        22.0
    29     3  1996    68    3        6.6         9.2        10.8        19.4        21.8        22.0        22.0        22.0        22.0        22.0        22.0        22.0
    30     3  1996    69    3       34.7        23.3        10.8        19.4        21.8        22.0        22.0        22.0        22.0        22.0        22.0        22.0
    31     3  1996    70    3       16.1        21.2        22.2        21.2        21.8        22.0        22.0        22.0        22.0        22.0        22.0        22.0
     1     4  1996    71    3       10.1        19.9        22.0        21.3        21.8        22.0        22.0        22.0        22.0        22.0        22.0        22.0
     2     4  1996    72    3        9.1        15.3        20.6        21.3        21.8        22.0        22.0        22.0        22.0        22.0        22.0        22.0
     3     4  1996    73    3        8.0        10.8        19.0        21.3        21.8        22.0        22.0        22.0        22.0        22.0        22.0        22.0
     4     4  1996    74    3        6.7         9.4        14.8        19.6        21.8        22.0        22.0        22.0        22.0        22.0        22.0        22.0
     5     4  1996    75    3       34.6        19.6        14.8        19.6        21.8        22.0        22.0        22.0        22.0        22.0        22.0        22.0
     6     4  1996    76    3       15.9        19.8        22.2        21.6        21.8        22.0        22.0        22.0        22.0        22.0        22.0        22.0
     7     4  1996    77    4       10.0        19.5        22.0        21.7        21.8        22.0        22.0        22.0        22.0        22.0        22.0        22.0
     8     4  1996    78    4        8.9        14.8        20.1        21.7        21.8        22.0        22.0        22.0        22.0        22.0        22.0        22.0
     9     4  1996    79    4        7.9        10.4        18.9        21.7        21.8        22.0        22.0        22.0        22.0        22.0        22.0        22.0
    10     4  1996    80    4       17.1         9.6        18.9        21.7        21.8        22.0        22.0        22.0        22.0        22.0        22.0        22.0
    11     4  1996    81    4       11.7         9.6        18.7        21.7        21.8        22.0        22.0        22.0        22.0        22.0        22.0        22.0
    12     4  1996    82    4       10.1         9.6        17.6        21.7        21.8        22.0        22.0        22.0        22.0        22.0        22.0        22.0
    13     4  1996    83    4        9.1         9.6        13.4        20.5        21.8        22.0        22.0        22.0        22.0        22.0        22.0        22.0
    14     4  1996    84    4       21.3         9.6        12.3        20.5        21.8        22.0        22.0        22.0        22.0        22.0        22.0        22.0
    15     4  1996    85    4       17.9         9.6        12.3        20.5        21.8        22.0        22.0        22.0        22.0        22.0        22.0        22.0
    16     4  1996    86    4       12.3         9.6        11.6        20.5        21.8        22.0        22.0        22.0        22.0        22.0        22.0        22.0
    17     4  1996    87    4        8.7         9.6         9.3        20.5        21.8        22.0        22.0        22.0        22.0        22.0        22.0        22.0
    18     4  1996    88    4        8.7         9.6         9.3        16.8        18.9        22.0        22.0        22.0        22.0        22.0        22.0        22.0
    19     4  1996    89    4       34.8        30.9         9.3        16.8        18.9        22.0        22.0        22.0        22.0        22.0        22.0        22.0
    20     4  1996    90    4       16.2        21.7        22.4        22.2        21.2        22.0        22.0        22.0        22.0        22.0        22.0        22.0
    21     4  1996    91    4       11.5        20.0        22.0        22.0        21.8        22.0        22.0        22.0        22.0        22.0        22.0        22.0
    22     4  1996    92    4        9.0        16.7        22.0        22.0        21.8        22.0        22.0        22.0        22.0        22.0        22.0        22.0
    23     4  1996    93    4        8.8        12.1        19.8        22.0        21.9        22.0        22.0        22.0        22.0        22.0        22.0        22.0
    24     4  1996    94    4        8.7         9.0        17.8        22.0        21.9        22.0        22.0        22.0        22.0        22.0        22.0        22.0
    25     4  1996    95    4        8.7         9.0        13.6        20.0        21.9        22.0        22.0        22.0        22.0        22.0        22.0        22.0
    26     4  1996    96    4        8.6         9.0        10.1        16.5        21.9        22.0        22.0        22.0        22.0        22.0        22.0        22.0
    27     4  1996    97    4       34.4        26.6        10.1        16.5        21.9        22.0        22.0        22.0        22.0        22.0        22.0        22.0
    28     4  1996    98    4       15.9        21.1        22.3        20.5        21.9        22.0        22.0        22.0        22.0        22.0        22.0        22.0
    29     4  1996    99    4        9.8        18.3        22.0        20.8        21.9        22.0        22.0        22.0        22.0        22.0        22.0        22.0
    30     4  1996   100    4        8.2        13.6        19.4        20.9        21.9        22.0        22.0        22.0        22.0        22.0        22.0        22.0
     1     5  1996   101    4        7.1        10.0        15.2        19.9        21.9        22.0        22.0        22.0        22.0        22.0        22.0        22.0
     2     5  1996   102    4       34.2        21.2        15.2        19.9        21.9        22.0        22.0        22.0        22.0        22.0        22.0        22.0
     3     5  1996   103    4       15.5        20.3        22.3        22.1        22.0        22.0        22.0        22.0        22.0        22.0        22.0        22.0
     4     5  1996   104    4        9.5        16.3        22.0        22.0        22.0        22.0        22.0        22.0        22.0        22.0        22.0        22.0
     5     5  1996   105    4        7.9        11.7        20.0        22.0        22.0        22.0        22.0        22.0        22.0        22.0        22.0        22.0
     6     5  1996   106    4        7.8         9.2        16.1        22.0        22.0        22.0        22.0        22.0        22.0        22.0        22.0        22.0
     7     5  1996   107    4        7.8         9.2        12.1        19.1        22.0        22.0        22.0        22.0        22.0        22.0        22.0        22.0
     8     5  1996   108    4       33.7        22.9        12.1        19.1        22.0        22.0        22.0        22.0        22.0        22.0        22.0        22.0
     9     5  1996   109    4       15.0        20.6        22.2        20.8        22.0        22.0        22.0        22.0        22.0        22.0        22.0        22.0
    10     5  1996   110    4        9.2        17.5        22.0        20.9        22.0        22.0        22.0        22.0        22.0        22.0        22.0        22.0

Legend

DAP          : Days after planting
Stage        : 0: before/after planting
Stage        : 1: emergence or transplant recovery
Stage        : 2: vegetative stage
Stage        : 3: flowering
Stage        : 4: yield formation and ripening
