AquaCrop 7.2 (August 2024) - Output created on (date) : 07-12-2024   at (time) : 20:43:05
Crop development and production

** Run number:  1
   Day Month  Year   DAP Stage    GD       Z     StExp  StSto  StSen StSalt StWeed   CC      CCw     StTr  Kc(Tr)     Trx      Tr       TrW  Tr/Trx   WP    Biomass     HI    Y(dry)  Y(fresh)  Brelative   WPet      Bin     Bout
                                °C-day     m       %      %      %      %      %      %       %       %       -        mm       mm       mm    %     g/m2    ton/ha      %    ton/ha   ton/ha       %      kg/m3   ton/ha   ton/ha
    22     1  1996     1    1    15.2    0.30     -9     -9     -9      0     -9     0.0     0.0      0    -9.00      0.0      0.0      0.0   100    17.7     0.000    -9.9    0.000    0.000       -9      0.00    0.000    0.000
    23     1  1996     2    1    14.5    0.30     -9     -9     -9      0     -9     0.0     0.0      0    -9.00      0.0      0.0      0.0   100    17.7     0.000    -9.9    0.000    0.000       -9      0.00    0.000    0.000
    24     1  1996     3    1    14.0    0.30     -9     -9     -9      0     -9     0.0     0.0      0    -9.00      0.0      0.0      0.0   100    17.7     0.000    -9.9    0.000    0.000       -9      0.00    0.000    0.000
    25     1  1996     4    1    13.0    0.30     -9     -9     -9      0     -9     0.0     0.0      0    -9.00      0.0      0.0      0.0   100    17.7     0.000    -9.9    0.000    0.000       -9      0.00    0.000    0.000
    26     1  1996     5    2    14.0    0.33     -9      0      0      0      0     0.8     0.8      0     0.01      0.1      0.1      0.1   100    17.7     0.003    -9.9    0.000    0.000      100      0.00    0.000    0.000
    27     1  1996     6    2    14.3    0.35      2      0      0      0      0     0.9     0.9      0     0.02      0.1      0.1      0.1   100    17.7     0.005    -9.9    0.000    0.000      100      0.00    0.000    0.000
    28     1  1996     7    2    15.1    0.37      4      0      0      0      0     1.0     1.0      0     0.02      0.1      0.1      0.1   100    17.7     0.009    -9.9    0.000    0.000      100      0.00    0.000    0.000
    29     1  1996     8    2    14.5    0.39      4      0      0      0      0     1.1     1.1      0     0.02      0.1      0.1      0.1   100    17.7     0.012    -9.9    0.000    0.000       99      0.00    0.000    0.000
    30     1  1996     9    2    14.6    0.41      4      0      0      0      0     1.2     1.2      0     0.02      0.1      0.1      0.1   100    17.7     0.016    -9.9    0.000    0.000       99      0.00    0.000    0.000
    31     1  1996    10    2    14.8    0.43      5      0      0      0      0     1.4     1.4      0     0.03      0.1      0.1      0.1   100    17.7     0.021    -9.9    0.000    0.000       99      0.00    0.000    0.000
     1     2  1996    11    2    15.0    0.45      3      0      0      0      0     1.5     1.5      0     0.03      0.1      0.1      0.1   100    17.7     0.026    -9.9    0.000    0.000       99      0.00    0.000    0.000
     2     2  1996    12    2    15.6    0.47      5      0      0      0      0     1.7     1.7      0     0.03      0.2      0.2      0.2   100    17.7     0.031    -9.9    0.000    0.000       98      0.00    0.000    0.000
     3     2  1996    13    2    14.4    0.49      4      0      0      0      0     1.9     1.9      0     0.04      0.2      0.2      0.2   100    17.7     0.038    -9.9    0.000    0.000       98      0.00    0.000    0.000
     4     2  1996    14    2    14.8    0.50      5      0      0      0      0     2.2     2.2      0     0.04      0.2      0.2      0.2   100    17.7     0.045    -9.9    0.000    0.000       98      0.00    0.000    0.000
     5     2  1996    15    2    14.5    0.52      5      0      0      0      0     2.5     2.5      0     0.05      0.2      0.2      0.2   100    17.7     0.053    -9.9    0.000    0.000       97      0.00    0.000    0.000
     6     2  1996    16    2    14.3    0.54      5      0      0      0      0     2.8     2.8      0     0.05      0.2      0.2      0.2   100    17.7     0.062    -9.9    0.000    0.000       97      0.00    0.000    0.000
     7     2  1996    17    2    13.5    0.55      5      0      0      0      0     3.1     3.1      0     0.06      0.3      0.3      0.3   100    17.7     0.072    -9.9    0.000    0.000       96      0.00    0.000    0.000
     8     2  1996    18    2    15.0    0.57      6      0      0      0      0     3.5     3.5      0     0.06      0.3      0.3      0.3   100    17.7     0.084    -9.9    0.000    0.000       96      0.00    0.000    0.000
     9     2  1996    19    2    14.5    0.58     10      0      0      0      0     3.9     3.9      0     0.07      0.4      0.4      0.4   100    17.7     0.097    -9.9    0.000    0.000       96      0.00    0.000    0.000
    10     2  1996    20    2    16.5    0.59     10      0      0      0      0     4.3     4.3      0     0.08      0.5      0.5      0.5   100    17.7     0.111    -9.9    0.000    0.000       95      0.00    0.000    0.000
    11     2  1996    21    2    15.0    0.61      6      0      0      0      0     4.9     4.9      0     0.09      0.4      0.4      0.4   100    17.7     0.126    -9.9    0.000    0.000       94      0.00    0.000    0.000
    12     2  1996    22    2    15.4    0.62      4      0      0      0      0     5.5     5.5      0     0.10      0.4      0.4      0.4   100    17.7     0.144    -9.9    0.000    0.000       94      0.00    0.000    0.000
    13     2  1996    23    2    15.5    0.64      4      0      0      0      0     6.1     6.1      0     0.11      0.4      0.4      0.4   100    17.7     0.164    -9.9    0.000    0.000       93      0.00    0.000    0.000
    14     2  1996    24    2    15.5    0.65      5      0      0      0      0     6.9     6.9      0     0.13      0.5      0.5      0.5   100    17.7     0.186    -9.9    0.000    0.000       93      0.00    0.000    0.000
    15     2  1996    25    2    16.0    0.66      7      0      0      0      0     7.7     7.7      0     0.14      0.6      0.6      0.6   100    17.7     0.211    -9.9    0.000    0.000       92      0.00    0.000    0.000
    16     2  1996    26    2    17.8    0.68      8      0      0      0      0     8.7     8.7      0     0.16      0.7      0.7      0.7   100    17.7     0.239    -9.9    0.000    0.000       92      0.00    0.000    0.000
    17     2  1996    27    2    15.5    0.69      9      0      0      0      0     9.7     9.7      0     0.17      0.8      0.8      0.8   100    17.7     0.269    -9.9    0.000    0.000       91      0.00    0.000    0.000
    18     2  1996    28    2    14.8    0.70     10      0      0      0      0    10.8    10.8      0     0.19      0.9      0.9      0.9   100    17.7     0.303    -9.9    0.000    0.000       91      0.00    0.000    0.000
    19     2  1996    29    2    14.6    0.71     12      0      0      0      0    12.1    12.1      0     0.21      1.1      1.1      1.1   100    17.7     0.341    -9.9    0.000    0.000       90      0.00    0.000    0.000
    20     2  1996    30    2    14.8    0.73     14      0      0      0      0    13.4    13.4      0     0.23      1.2      1.2      1.2   100    17.7     0.383    -9.9    0.000    0.000       89      0.00    0.000    0.000
    21     2  1996    31    2    15.5    0.74     17      0      0      0      0    14.9    14.9      0     0.26      1.4      1.4      1.4   100    17.7     0.428    -9.9    0.000    0.000       88      0.00    0.000    0.000
    22     2  1996    32    2    15.2    0.75     19      0      0      0      0    16.4    16.4      0     0.28      1.6      1.6      1.6   100    17.7     0.478    -9.9    0.000    0.000       88      0.00    0.000    0.000
    23     2  1996    33    2    17.3    0.76     19      0      0      0      0    18.1    18.1      0     0.31      1.6      1.6      1.6   100    17.7     0.533    -9.9    0.000    0.000       87      0.00    0.000    0.000
    24     2  1996    34    2    16.7    0.77     28      0      0      0      0    19.8    19.8      0     0.33      2.0      2.0      2.0   100    17.7     0.592    -9.9    0.000    0.000       86      0.00    0.000    0.000
    25     2  1996    35    3    16.8    0.79      0      0      0      0      0    22.4    22.4      0     0.37      2.3      2.3      2.3   100    17.7     0.658    -9.9    0.000    0.000       85      0.00    0.000    0.000
    26     2  1996    36    3    15.8    0.80      0      0      0      0      0    25.3    25.3      0     0.41      2.9      2.9      2.9   100    17.7     0.731    -9.9    0.000    0.000       84      0.00    0.000    0.000
    27     2  1996    37    3    16.0    0.81      0      0      0      0      0    28.6    28.6      0     0.46      2.9      2.9      2.9   100    17.7     0.812    -9.9    0.000    0.000       84      0.00    0.000    0.000
    28     2  1996    38    3    16.0    0.82      1      0      0      0      0    32.3    32.3      0     0.51      3.3      3.3      3.3   100    17.7     0.902     1.5    0.014    0.272       83      0.02    0.000    0.000
    29     2  1996    39    3    14.5    0.83      5      0      0      0      0    36.3    36.3      0     0.56      4.1      4.1      4.1   100    17.7     1.001     1.7    0.017    0.345       83      0.03    0.000    0.000
     1     3  1996    40    3    14.5    0.84      7      0      0      0      0    40.5    40.5      0     0.61      4.2      4.2      4.2   100    17.7     1.108     2.0    0.022    0.437       83      0.03    0.000    0.000
     2     3  1996    41    3    15.8    0.85      8      0      0      0      0    44.1    44.1      0     0.65      3.9      3.9      3.9   100    17.7     1.223     2.3    0.028    0.552       84      0.04    0.000    0.000
     3     3  1996    42    3    16.3    0.86     16      0      0      0      0    47.1    47.1      0     0.68      4.6      4.6      4.6   100    17.7     1.344     2.6    0.035    0.693       84      0.05    0.000    0.000
     4     3  1996    43    3    14.8    0.88     17      0      0      0      0    49.8    49.8      0     0.71      4.1      4.1      4.1   100    17.7     1.469     2.9    0.043    0.866       85      0.05    0.000    0.000
     5     3  1996    44    3    15.5    0.89     19      0      0      0      0    52.2    52.2      0     0.73      3.7      3.7      3.7   100    17.7     1.599     3.4    0.054    1.075       85      0.06    0.000    0.000
     6     3  1996    45    3    14.8    0.90     31      0      0      0      0    54.0    54.0      0     0.75      4.3      4.3      4.3   100    17.7     1.733     3.8    0.066    1.328       86      0.08    0.000    0.000
     7     3  1996    46    3    15.0    0.91      0      0      0      0      0    56.4    56.4      0     0.78      4.3      4.3      4.3   100    17.7     1.870     4.4    0.082    1.632       86      0.09    0.000    0.000
     8     3  1996    47    3    15.0    0.92      0      0      0      0      0    58.6    58.6      0     0.80      4.8      4.8      4.8   100    17.7     2.011     5.0    0.100    1.996       87      0.10    0.000    0.000
     9     3  1996    48    3    15.8    0.93      0      0      0      0      0    60.5    60.5      0     0.81      4.6      4.6      4.6   100    17.7     2.155     5.6    0.121    2.430       87      0.11    0.000    0.000
    10     3  1996    49    3    15.8    0.94      0      0      0      0      0    62.1    62.1      0     0.83      4.6      4.6      4.6   100    17.7     2.302     6.4    0.147    2.943       88      0.13    0.000    0.000
    11     3  1996    50    3    16.5    0.95      3      0      0      0      0    63.6    63.6      0     0.84      5.3      5.3      5.3   100    17.7     2.451     7.2    0.177    3.547       88      0.15    0.000    0.000
    12     3  1996    51    3    16.5    0.96      6      0      0      0      0    64.8    64.8      0     0.85      5.2      5.2      5.2   100    17.7     2.602     8.2    0.213    4.254       89      0.17    0.000    0.000
    13     3  1996    52    3    17.4    0.97     12      0      0      0      0    65.8    65.8      0     0.86      5.6      5.6      5.6   100    17.7     2.755     9.2    0.254    5.077       89      0.20    0.000    0.000
    14     3  1996    53    3    17.0    0.98     17      0      0      0      0    66.7    66.7      0     0.87      5.4      5.4      5.4   100    17.7     2.909    10.4    0.301    6.029       89      0.22    0.000    0.000
    15     3  1996    54    3    17.5    0.99     25      0      0      0      0    67.4    67.4      0     0.88      5.5      5.5      5.5   100    17.7     3.064    11.6    0.356    7.123       90      0.25    0.000    0.000
    16     3  1996    55    3    16.8    1.00      0      0      0      0      0    68.3    68.3      0     0.88      7.4      7.4      7.4   100    17.7     3.220    12.9    0.417    8.335       90      0.28    0.000    0.000
    17     3  1996    56    3    16.8    1.00      0      0      0      0      0    69.1    69.1      0     0.89      6.4      6.4      6.4   100    17.7     3.378    14.3    0.482    9.633       90      0.30    0.000    0.000
    18     3  1996    57    3    15.8    1.00      2      0      0      0      0    69.7    69.7      0     0.90      7.3      7.3      7.3   100    17.7     3.537    15.6    0.551   11.017       91      0.33    0.000    0.000
    19     3  1996    58    3    15.6    1.00      1      0      0      0      0    70.3    70.3      0     0.90      5.0      5.0      5.0   100    17.7     3.696    16.9    0.624   12.487       91      0.36    0.000    0.000
    20     3  1996    59    3    16.8    1.00      2      0      0      0      0    70.8    70.8      0     0.91      4.0      4.0      4.0   100    17.7     3.856    18.2    0.702   14.044       91      0.39    0.000    0.000
    21     3  1996    60    3    18.3    1.00     11      0      0      0      0    71.2    71.2      0     0.91      6.0      6.0      6.0   100    17.7     4.017    19.5    0.784   15.688       92      0.43    0.000    0.000
    22     3  1996    61    3    17.3    1.00     24      0      0      0      0    71.6    71.6      0     0.91      6.7      6.7      6.7   100    17.7     4.178    20.8    0.871   17.419       92      0.46    0.000    0.000
    23     3  1996    62    3    16.9    1.00      0      0      0      0      0    72.0    72.0      0     0.91      6.2      6.2      6.2   100    17.7     4.340    22.2    0.962   19.237       92      0.49    0.000    0.000
    24     3  1996    63    3    17.3    1.00      0      0      0      0      0    72.3    72.3      0     0.92      5.9      5.9      5.9   100    17.7     4.502    23.5    1.057   21.143       92      0.51    0.000    0.000
    25     3  1996    64    3    17.3    1.00      0      0      0      0      0    72.6    72.6      0     0.92      4.9      4.9      4.9   100    17.7     4.665    24.8    1.157   23.137       93      0.55    0.000    0.000
    26     3  1996    65    3    17.8    1.00      1      0      0      0      0    72.9    72.9      0     0.92      6.2      6.2      6.2   100    17.7     4.828    26.1    1.261   25.218       93      0.58    0.000    0.000
    27     3  1996    66    3    18.0    1.00      6      0      0      0      0    73.1    73.1      0     0.92      6.8      6.8      6.8   100    17.7     4.992    27.4    1.369   27.387       93      0.60    0.000    0.000
    28     3  1996    67    3    17.0    1.00     12      0      0      0      0    73.3    73.3      0     0.93      6.8      6.8      6.8   100    17.7     5.156    28.7    1.482   29.644       93      0.63    0.000    0.000
    29     3  1996    68    3    18.0    1.00     21      0      0      0      0    73.4    73.4      0     0.93      6.5      6.5      6.5   100    17.7     5.320    30.1    1.599   31.988       93      0.66    0.000    0.000
    30     3  1996    69    3    19.5    1.00      0      0      0      0      0    74.3    74.3      0     0.93      6.5      6.5      6.5   100    17.7     5.485    31.4    1.721   34.426       93      0.69    0.000    0.000
    31     3  1996    70    3    19.6    1.00     -9      0      0      0      0    74.4    74.4      0     0.93      6.3      6.3      6.3   100    17.7     5.650    32.7    1.848   36.951       94      0.72    0.000    0.000
     1     4  1996    71    3    17.3    1.00     -9      0      0      0      0    74.4    74.4      0     0.93      6.2      6.2      6.2   100    17.7     5.815    34.0    1.978   39.563       94      0.75    0.000    0.000
     2     4  1996    72    3    17.5    1.00     -9      0      0      0      0    74.5    74.5      0     0.93      6.1      6.1      6.1   100    17.7     5.980    35.3    2.113   42.261       94      0.78    0.000    0.000
     3     4  1996    73    3    17.8    1.00     -9      0      0      0      0    74.6    74.6      0     0.93      6.1      6.1      6.1   100    17.7     6.145    36.7    2.252   45.045       94      0.81    0.000    0.000
     4     4  1996    74    3    18.0    1.00     -9      0      0      0      0    74.6    74.6      0     0.93      7.4      7.4      7.4   100    17.7     6.310    38.0    2.396   47.916       94      0.84    0.000    0.000
     5     4  1996    75    3    19.0    1.00     -9      0      0      0      0    74.7    74.7      0     0.93      7.0      7.0      7.0   100    17.7     6.474    39.3    2.544   50.872       94      0.86    0.000    0.000
     6     4  1996    76    3    18.9    1.00     -9      0      0      0      0    74.7    74.7      0     0.93      7.8      7.8      7.8   100    17.7     6.639    40.6    2.696   53.915       95      0.89    0.000    0.000
     7     4  1996    77    4    17.3    1.00     -9      0      0      0      0    74.7    74.7      0     0.93      5.2      5.2      5.2   100    17.7     6.803    41.9    2.852   57.043       95      0.92    0.000    0.000
     8     4  1996    78    4    17.3    1.00     -9      0      0      0      0    74.8    74.8      0     0.93      6.6      6.6      6.6   100    17.7     6.968    43.2    3.013   60.257       95      0.95    0.000    0.000
     9     4  1996    79    4    18.8    1.00     -9      0      0      0      0    74.8    74.8      0     0.93      5.6      5.6      5.6   100    17.7     7.132    44.6    3.178   63.556       95      0.98    0.000    0.000
    10     4  1996    80    4    17.8    1.00     -9      0      0      0      0    74.8    74.8      0     0.93      5.9      5.9      5.9   100    17.7     7.296    45.9    3.347   66.940       95      1.01    0.000    0.000
    11     4  1996    81    4    17.5    1.00     -9      0      0      0      0    74.8    74.8      0     0.93      5.4      5.4      5.4   100    17.7     7.460    47.2    3.520   70.410       95      1.04    0.000    0.000
    12     4  1996    82    4    17.3    1.00     -9      0      0      0      0    74.9    74.9      0     0.93      6.0      6.0      6.0   100    17.7     7.624    48.5    3.698   73.965       95      1.07    0.000    0.000
    13     4  1996    83    4    17.9    1.00     -9      0      0      0      0    74.9    74.9      0     0.93      5.5      5.5      5.5   100    17.7     7.787    49.8    3.880   77.604       95      1.11    0.000    0.000
    14     4  1996    84    4    16.3    1.00     -9      0      0      0      0    74.9    74.9      0     0.92      6.2      6.2      6.2   100    17.7     7.951    51.1    4.066   81.328       95      1.14    0.000    0.000
    15     4  1996    85    4    16.8    1.00     -9      0      0      0      0    74.9    74.9      0     0.92      3.2      3.2      3.2   100    17.7     8.114    52.5    4.257   85.137       96      1.18    0.000    0.000
    16     4  1996    86    4    17.3    1.00     -9      0      0      0      0    74.9    74.9      0     0.92      5.9      5.9      5.9   100    17.7     8.277    53.8    4.451   89.030       96      1.21    0.000    0.000
    17     4  1996    87    4    17.8    1.00     -9      0      0      0      0    74.9    74.9      0     0.92      5.7      5.7      5.7   100    17.7     8.440    55.1    4.650   93.007       96      1.24    0.000    0.000
    18     4  1996    88    4    18.4    1.00     -9      0      0      0      0    74.9    74.9      0     0.92      6.6      6.6      6.6   100    17.7     8.603    56.4    4.853   97.069       96      1.28    0.000    0.000
    19     4  1996    89    4    18.9    1.00     -9      0      0      0      0    74.9    74.9      0     0.92      6.1      6.1      6.1   100    17.7     8.766    57.7    5.061  101.214       96      1.31    0.000    0.000
    20     4  1996    90    4    19.3    1.00     -9      0      0      0      0    74.9    74.9      0     0.92      5.9      5.9      5.9   100    17.7     8.929    59.0    5.272  105.444       96      1.34    0.000    0.000
    21     4  1996    91    4    19.5    1.00     -9      0      0      0      0    75.0    75.0      0     0.92      6.8      6.8      6.8   100    17.7     9.091    60.4    5.488  109.757       96      1.36    0.000    0.000
    22     4  1996    92    4    17.8    1.00     -9      0     -9      0      0    74.6    74.6      0     0.91      5.2      5.2      5.2   100    17.7     9.252    61.7    5.707  114.140       96      1.40    0.000    0.000
    23     4  1996    93    4    19.3    1.00     -9      0     -9      0      0    74.3    74.3      0     0.90      6.9      6.9      6.9   100    17.7     9.412    63.0    5.930  118.591       96      1.43    0.000    0.000
    24     4  1996    94    4    18.8    1.00     -9      0     -9      0      0    73.9    73.9      0     0.90      5.1      5.1      5.1   100    17.7     9.570    63.0    6.029  120.586       96      1.43    0.000    0.000
    25     4  1996    95    4    18.8    1.00     -9      0     -9      0      0    73.6    73.6      0     0.89      6.2      6.2      6.2   100    17.7     9.727    63.0    6.128  122.562       96      1.44    0.000    0.000
    26     4  1996    96    4    19.0    1.00     -9      0     -9      0      0    73.1    73.1      0     0.88      6.9      6.9      6.9   100    17.7     9.882    63.0    6.226  124.517       96      1.43    0.000    0.000
    27     4  1996    97    4    18.8    1.00     -9      0     -9      0      0    72.7    72.7      0     0.87      7.3      7.3      7.3   100    17.7    10.036    63.0    6.322  126.450       96      1.43    0.000    0.000
    28     4  1996    98    4    19.8    1.00     -9      0     -9      0      0    72.2    72.2      0     0.86      6.5      6.5      6.5   100    17.7    10.187    63.0    6.418  128.359       96      1.42    0.000    0.000
    29     4  1996    99    4    19.3    1.00     -9      0     -9      0      0    71.6    71.6      0     0.85      7.3      7.3      7.3   100    17.7    10.337    63.0    6.512  130.242       96      1.42    0.000    0.000
    30     4  1996   100    4    20.1    1.00     -9      0     -9      0      0    71.0    71.0      0     0.83      7.3      7.3      7.3   100    17.7    10.484    63.0    6.605  132.099       96      1.41    0.000    0.000
     1     5  1996   101    4    20.3    1.00     -9      0     -9      0      0    70.4    70.4      0     0.82      8.9      8.9      8.9   100    17.7    10.629    63.0    6.696  133.926       97      1.40    0.000    0.000
     2     5  1996   102    4    19.6    1.00     -9      0     -9      0      0    69.7    69.7      0     0.81      6.9      6.9      6.9   100    17.7    10.772    63.0    6.786  135.722       97      1.39    0.000    0.000
     3     5  1996   103    4    18.8    1.00     -9      0     -9      0      0    69.0    69.0      0     0.79      7.3      7.3      7.3   100    17.7    10.912    63.0    6.874  137.486       97      1.39    0.000    0.000
     4     5  1996   104    4    18.4    1.00     -9      0     -9      0      0    68.2    68.2      0     0.77      8.0      8.0      8.0   100    17.7    11.049    63.0    6.961  139.213       97      1.38    0.000    0.000
     5     5  1996   105    4    17.0    1.00     -9      0     -9      0      0    67.3    67.3      0     0.76      6.5      6.5      6.5   100    17.7    11.183    63.0    7.045  140.902       97      1.37    0.000    0.000
     6     5  1996   106    4    18.5    1.00     -9      0     -9      0      0    66.4    66.4      0     0.74      6.4      6.4      6.4   100    17.7    11.314    63.0    7.128  142.551       97      1.37    0.000    0.000
     7     5  1996   107    4    18.9    1.00     -9      0     -9      0      0    65.4    65.4      0     0.72      6.9      6.9      6.9   100    17.7    11.441    63.0    7.208  144.156       97      1.37    0.000    0.000
     8     5  1996   108    4    19.5    1.00     -9      0     -9      0      0    64.3    64.3      0     0.70      7.0      7.0      7.0   100    17.7    11.565    63.0    7.286  145.715       97      1.36    0.000    0.000
     9     5  1996   109    4    19.3    1.00     -9      0     -9      0      0    63.1    63.1      0     0.68      7.0      7.0      7.0   100    17.7    11.684    63.0    7.361  147.224       97      1.35    0.000    0.000
    10     5  1996   110    4    19.8    1.00     -9      0     -9      0      0    61.8    61.8      0     0.65      6.6      6.6      6.6   100    17.7    11.800    63.0    7.434  148.680       97      1.34    0.000    0.000

Legend

DAP          : Days after planting
Stage        : 0: before/after planting
Stage        : 1: emergence or transplant recovery
Stage        : 2: vegetative stage
Stage        : 3: flowering
Stage        : 4: yield formation and ripening
GD           : Growing degrees
Z            : Effective rooting depth
StExp        : Percent water stress reducing leaf expansion
StSto        : Percent water stress inducing stomatal closure
StSen        : Percent water stress triggering early canopy senescence
StSalt       : Percent salinity stress
StWeed       : Relative cover of weeds
CC           : Green total Canopy Cover of crop and weeds
CCw          : Green crop Canopy Cover in weed infested field
StTr         : Percent temperature stress affecting crop transpiration
Kc(Tr)       : Crop coefficient for transpiration
Trx          : Maximum total transpiration of crop and weeds
Tr           : Total transpiration of crop and weeds
TrW          : Crop transpiration in weed infested field
Tr/Trx       : Relative total transpiration of crop and weeds (100 Tr/Trx)
WP           : Crop water productivity adjusted for CO2, soil fertility and products synthesized
Biomass      : Total above-ground dry biomass
HI           : Harvest Index adjusted for failure of pollination, inadequate photosynthesis and water stress
Y(dry)       : Dry crop yield (HI x Biomass)
Y(fresh)     : Fresh crop yield
Brelative    : Relative biomass (Reference: no water, no soil fertility, no soil salinity stress, no weed infestation)
WPet         : ET Water productivity for yield part (kg yield produced per m3 water evapotranspired)
Bin          : Daily mass of assimilates remobilized from below-ground organs at start of season
Bout         : Daily mass of assimilates stored in below-ground organs at end of season
