AquaCrop 7.2 (August 2024) - Output created on (date) : 07-12-2024   at (time) : 20:43:05
Climate input data

** Run number:  1
   Day Month  Year   DAP Stage     Rain       ETo      Tmin      Tavg      Tmax      CO2
                                    mm        mm        °C        °C        °C       ppm
    22     1  1996     1    1       0.0       3.8      16.4      23.4      30.5    362.74
    23     1  1996     2    1       0.0       3.9      15.0      22.3      29.5    362.74
    24     1  1996     3    1       0.0       4.4      14.0      21.8      29.5    362.74
    25     1  1996     4    1       0.0       4.2      12.0      20.5      29.0    362.74
    26     1  1996     5    2       0.0       3.9      14.0      22.1      30.2    362.74
    27     1  1996     6    2       0.0       4.1      14.5      22.8      31.0    362.74
    28     1  1996     7    2       0.0       4.8      16.2      23.4      30.5    362.74
    29     1  1996     8    2       0.0       4.5      15.0      22.5      30.0    362.74
    30     1  1996     9    2       0.0       4.7      15.2      23.0      30.8    362.74
    31     1  1996    10    2       0.0       4.6      15.6      23.2      30.8    362.74
     1     2  1996    11    2       0.0       4.1      16.0      23.5      31.0    362.74
     2     2  1996    12    2       0.0       4.7      17.2      24.2      31.2    362.74
     3     2  1996    13    2       0.0       4.2      14.8      22.1      29.5    362.74
     4     2  1996    14    2       0.0       4.6      15.6      22.8      30.0    362.74
     5     2  1996    15    2       0.0       4.6      15.0      22.5      30.0    362.74
     6     2  1996    16    2       0.0       4.4      14.5      22.5      30.5    362.74
     7     2  1996    17    2       0.0       4.6      13.0      21.8      30.5    362.74
     8     2  1996    18    2       0.0       4.9      16.0      22.9      29.8    362.74
     9     2  1996    19    2       0.0       5.9      15.0      22.3      29.5    362.74
    10     2  1996    20    2       0.0       5.9      19.0      23.8      28.5    362.74
    11     2  1996    21    2       0.0       4.5      16.0      23.0      30.0    362.74
    12     2  1996    22    2       0.0       3.8      16.8      22.6      28.5    362.74
    13     2  1996    23    2       0.0       3.8      17.0      22.8      28.5    362.74
    14     2  1996    24    2       0.0       3.9      17.0      23.3      29.6    362.74
    15     2  1996    25    2       0.0       4.5      18.0      24.0      30.0    362.74
    16     2  1996    26    2       0.0       4.7      21.5      25.8      30.0    362.74
    17     2  1996    27    2       0.0       4.9      17.0      23.8      30.5    362.74
    18     2  1996    28    2       0.0       4.9      15.5      23.3      31.0    362.74
    19     2  1996    29    2       0.0       5.2      15.2      23.4      31.5    362.74
    20     2  1996    30    2       0.0       5.2      15.6      24.3      33.0    362.74
    21     2  1996    31    2       0.0       5.5      17.0      25.5      34.0    362.74
    22     2  1996    32    2       0.0       5.5      16.4      25.7      35.0    362.74
    23     2  1996    33    2       0.0       5.2      20.5      27.6      34.8    362.74
    24     2  1996    34    2       0.0       6.1      19.4      27.7      36.0    362.74
    25     2  1996    35    3       0.0       6.1      19.6      27.3      35.0    362.74
    26     2  1996    36    3       0.0       6.9      17.5      25.8      34.0    362.74
    27     2  1996    37    3       0.0       6.4      18.0      26.0      34.0    362.74
    28     2  1996    38    3       0.0       6.4      18.0      24.8      31.5    362.74
    29     2  1996    39    3       0.0       7.4      15.0      24.3      33.5    362.74
     1     3  1996    40    3       0.0       6.9      15.0      24.5      34.0    362.74
     2     3  1996    41    3       0.0       6.0      17.5      25.5      33.5    362.74
     3     3  1996    42    3       0.0       6.8      18.5      26.0      33.5    362.74
     4     3  1996    43    3       0.0       5.8      15.5      23.8      32.0    362.74
     5     3  1996    44    3       0.0       5.0      17.0      24.3      31.5    362.74
     6     3  1996    45    3       0.0       5.7      15.6      24.1      32.5    362.74
     7     3  1996    46    3       0.0       5.5      16.0      24.6      33.2    362.74
     8     3  1996    47    3       0.0       6.0      16.0      24.9      33.8    362.74
     9     3  1996    48    3       0.0       5.6      17.6      26.2      34.8    362.74
    10     3  1996    49    3       0.0       5.6      17.5      26.5      35.5    362.74
    11     3  1996    50    3       0.0       6.3      19.0      27.0      35.0    362.74
    12     3  1996    51    3       0.0       6.1      19.0      27.3      35.5    362.74
    13     3  1996    52    3       0.0       6.5      20.7      28.8      36.8    362.74
    14     3  1996    53    3       0.0       6.2      20.0      28.8      37.5    362.74
    15     3  1996    54    3       0.0       6.3      21.0      29.0      37.0    362.74
    16     3  1996    55    3       0.0       8.4      19.5      28.5      37.5    362.74
    17     3  1996    56    3       0.0       7.2      19.5      28.0      36.5    362.74
    18     3  1996    57    3       0.0       8.1      17.5      27.3      37.0    362.74
    19     3  1996    58    3       0.0       5.5      17.2      26.1      35.0    362.74
    20     3  1996    59    3       0.0       4.4      19.5      26.5      33.5    362.74
    21     3  1996    60    3       0.0       6.6      22.5      29.8      37.0    362.74
    22     3  1996    61    3       0.0       7.4      20.5      28.8      37.0    362.74
    23     3  1996    62    3       0.0       6.8      19.8      28.4      37.0    362.74
    24     3  1996    63    3       0.0       6.4      20.6      29.3      38.0    362.74
    25     3  1996    64    3       0.0       5.3      20.5      29.0      37.5    362.74
    26     3  1996    65    3       0.0       6.7      21.5      30.3      39.0    362.74
    27     3  1996    66    3       0.0       7.4      22.0      30.8      39.5    362.74
    28     3  1996    67    3       0.0       7.4      20.0      29.5      39.0    362.74
    29     3  1996    68    3       0.0       7.0      22.0      30.5      39.0    362.74
    30     3  1996    69    3       0.0       7.0      25.0      32.3      39.5    362.74
    31     3  1996    70    3       0.0       6.8      25.2      32.1      39.0    362.74
     1     4  1996    71    3       0.0       6.6      20.5      29.3      38.0    362.74
     2     4  1996    72    3       0.0       6.5      21.0      29.0      37.0    362.74
     3     4  1996    73    3       0.0       6.5      21.5      29.3      37.0    362.74
     4     4  1996    74    3       0.0       7.9      22.0      29.0      36.0    362.74
     5     4  1996    75    3       0.0       7.5      24.0      30.0      36.0    362.74
     6     4  1996    76    3       0.0       8.4      23.8      29.9      36.0    362.74
     7     4  1996    77    4       0.0       5.6      20.6      27.8      35.0    362.74
     8     4  1996    78    4       0.0       7.1      20.5      28.3      36.0    362.74
     9     4  1996    79    4       0.0       6.0      23.5      30.8      38.0    362.74
    10     4  1996    80    4      15.4       6.4      21.5      29.5      37.5    362.74
    11     4  1996    81    4       0.3       5.8      21.0      28.0      35.0    362.74
    12     4  1996    82    4       4.3       6.5      20.5      27.8      35.0    362.74
    13     4  1996    83    4       0.0       5.9      21.8      27.9      34.0    362.74
    14     4  1996    84    4      18.4       6.7      18.6      26.1      33.5    362.74
    15     4  1996    85    4       0.4       3.5      19.6      24.3      29.0    362.74
    16     4  1996    86    4       0.0       6.4      20.5      26.8      33.0    362.74
    17     4  1996    87    4       0.0       6.2      21.5      28.0      34.5    362.74
    18     4  1996    88    4       0.0       7.2      22.7      29.6      36.5    362.74
    19     4  1996    89    4       0.0       6.6      23.7      30.1      36.5    362.74
    20     4  1996    90    4       0.0       6.4      24.5      30.8      37.0    362.74
    21     4  1996    91    4       1.6       7.4      25.0      31.7      38.4    362.74
    22     4  1996    92    4       0.0       5.7      21.5      28.3      35.0    362.74
    23     4  1996    93    4       0.0       7.6      24.5      31.3      38.0    362.74
    24     4  1996    94    4       0.0       5.7      23.5      29.5      35.5    362.74
    25     4  1996    95    4       0.0       7.0      23.6      30.8      38.0    362.74
    26     4  1996    96    4       0.0       7.9      24.0      31.3      38.6    362.74
    27     4  1996    97    4       0.0       8.4      23.6      31.7      39.8    362.74
    28     4  1996    98    4       0.0       7.6      25.5      33.0      40.5    362.74
    29     4  1996    99    4       0.0       8.6      24.5      32.6      40.8    362.74
    30     4  1996   100    4       0.0       8.8      26.2      33.9      41.5    362.74
     1     5  1996   101    4       0.0      10.8      26.5      34.5      42.5    362.74
     2     5  1996   102    4       0.0       8.6      25.2      32.9      40.5    362.74
     3     5  1996   103    4       0.0       9.2      23.5      31.6      39.6    362.74
     4     5  1996   104    4       0.0      10.3      22.7      31.8      40.8    362.74
     5     5  1996   105    4       0.0       8.6      20.0      30.0      40.0    362.74
     6     5  1996   106    4       0.0       8.7      23.0      31.8      40.6    362.74
     7     5  1996   107    4       0.0       9.6      23.8      32.2      40.6    362.74
     8     5  1996   108    4       0.0      10.0      25.0      33.3      41.6    362.74
     9     5  1996   109    4       0.0      10.3      24.5      33.1      41.8    362.74
    10     5  1996   110    4       0.0      10.1      25.5      33.3      41.0    362.74

Legend

DAP          : Days after planting
Stage        : 0: before/after planting
Stage        : 1: emergence or transplant recovery
Stage        : 2: vegetative stage
Stage        : 3: flowering
Stage        : 4: yield formation and ripening
Rain         : Rainfall
ETo          : Reference evapotranspiration
Tmin         : Minimum air temperature
Tavg         : Average air temperature
Tmax         : Maximum air temperature
CO2          : Atmospheric CO2 concentration
