AquaCrop 7.2 (August 2024) - Output created on (date) : 07-12-2024   at (time) : 20:43:05
Biomass and Yield at Multiple cuttings

** Run number:  1
    Nr   Day  Month Year   DAP Interval  Biomass    Sum(B)   Dry-Yield  Sum(Y) Fresh-Yield  Sum(Y)
                                 days     ton/ha    ton/ha    ton/ha    ton/ha    ton/ha    ton/ha
     0    22     1  1996                             0.000               0.000               0.000
  9999    11     5  1996                            11.800               7.434             148.680

Legend

DAP          : Days after planting
Interval     : Number of days between events
Nr = 0       : At start of season
Nr = 1 to n  : Harvest event
Nr = 9999    : At end of season
