AquaCrop 7.2 (August 2024) - Output created on (date) : 07-12-2024   at (time) : 20:43:05
Soil Water content in soil profile (WC) and root zone (Wr)

** Run number:  1   -- Water content in soil profile (WCTot layer: 0.00 - 1.20 m) and root zone (Wr with Zx = 1.00 m)
   Day Month  Year   DAP Stage     WCTot   Wr(Zx)      Z       Wr    Wr(SAT)    Wr(FC)   Wr(exp)   Wr(sto)   Wr(sen)   Wr(PWP)
                                     mm       mm       m       mm        mm        mm        mm        mm        mm        mm
    22     1  1996     1    1     260.8    216.8    0.30     62.8     123.0      66.0      60.6      46.7      40.8      30.0
    23     1  1996     2    1     258.7    214.7    0.30     60.7     123.0      66.0      60.6      46.8      40.8      30.0
    24     1  1996     3    1     256.9    212.9    0.30     58.9     123.0      66.0      60.6      47.4      40.8      30.0
    25     1  1996     4    1     255.6    211.6    0.30     57.6     123.0      66.0      60.6      47.1      40.8      30.0
    26     1  1996     5    2     254.6    210.6    0.33     62.4     133.9      71.8      64.3      51.0      43.4      32.6
    27     1  1996     6    2     253.6    209.6    0.35     66.9     143.9      77.2      69.5      55.1      46.9      35.1
    28     1  1996     7    2     252.7    208.7    0.37     70.9     153.2      82.2      75.2      59.5      50.6      37.4
    29     1  1996     8    2     251.9    207.9    0.39     74.8     161.9      86.9      78.9      62.5      53.2      39.5
    30     1  1996     9    2     251.1    207.1    0.41     78.4     170.1      91.3      83.2      65.9      56.1      41.5
    31     1  1996    10    2     250.5    206.5    0.43     81.9     177.9      95.5      86.9      68.8      58.5      43.4
     1     2  1996    11    2     249.9    205.9    0.45     85.4     185.4      99.5      89.5      70.9      60.4      45.2
     2     2  1996    12    2     249.3    205.3    0.47     88.7     192.7     103.4      94.3      74.7      63.5      47.0
     3     2  1996    13    2     248.8    204.8    0.49     91.9     199.6     107.1      96.6      76.5      65.2      48.7
     4     2  1996    14    2     248.2    204.2    0.50     95.0     206.4     110.8     100.8      79.8      67.9      50.3
     5     2  1996    15    2     247.6    203.6    0.52     97.9     213.0     114.3     104.0      82.4      70.1      52.0
     6     2  1996    16    2     247.1    203.1    0.54    100.8     219.4     117.8     106.7      84.5      71.9      53.5
     7     2  1996    17    2     246.5    202.5    0.55    103.6     225.7     121.1     110.2      87.3      74.3      55.1
     8     2  1996    18    2     245.9    201.9    0.57    106.3     231.9     124.4     114.0      90.3      76.8      56.6
     9     2  1996    19    2     245.1    201.1    0.58    108.7     237.9     127.6     119.5      94.7      80.3      58.0
    10     2  1996    20    2     244.3    200.3    0.59    111.1     243.8     130.8     122.5      97.0      82.3      59.5
    11     2  1996    21    2     243.6    199.6    0.61    113.5     249.6     133.9     121.6      96.3      81.9      60.9
    12     2  1996    22    2     243.0    199.0    0.62    116.0     255.2     137.0     122.4      97.0      82.6      62.3
    13     2  1996    23    2     242.4    198.4    0.64    118.4     260.8     140.0     125.1      99.1      84.4      63.6
    14     2  1996    24    2     241.7    197.7    0.65    120.7     266.3     142.9     128.0     101.4      86.4      65.0
    15     2  1996    25    2     240.9    196.9    0.66    122.7     271.8     145.8     132.4     104.9      89.2      66.3
    16     2  1996    26    2     240.0    196.0    0.68    124.7     277.1     148.7     135.6     107.4      91.4      67.6
    17     2  1996    27    2     239.0    195.0    0.69    126.5     282.4     151.5     138.8     109.9      93.5      68.9
    18     2  1996    28    2     237.9    193.9    0.70    128.2     287.6     154.3     141.4     112.0      95.2      70.1
    19     2  1996    29    2     236.6    192.6    0.71    129.7     292.7     157.1     144.9     114.7      97.5      71.4
    20     2  1996    30    2     235.3    191.3    0.73    131.1     297.8     159.8     147.4     116.7      99.2      72.6
    21     2  1996    31    2     233.8    189.8    0.74    132.2     302.8     162.5     150.8     119.5     101.4      73.8
    22     2  1996    32    2     232.1    188.1    0.75    133.2     307.7     165.1     153.3     121.4     103.1      75.1
    23     2  1996    33    2     230.4    186.4    0.76    134.2     312.6     167.8     154.7     122.5     104.1      76.3
    24     2  1996    34    2     228.3    184.3    0.77    134.6     317.5     170.4     160.2     126.9     107.6      77.4
    25     2  1996    35    3     264.0    220.0    0.79    172.9     322.3     172.9     162.7     128.8     109.3      78.6
    26     2  1996    36    3     256.7    212.7    0.80    168.2     327.0     175.5     167.9     133.0     112.6      79.8
    27     2  1996    37    3     252.2    208.2    0.81    166.2     331.7     178.0     168.5     133.5     113.1      80.9
    28     2  1996    38    3     248.3    204.3    0.82    164.8     336.4     180.5     170.9     135.4     114.7      82.0
    29     2  1996    39    3     243.7    199.7    0.83    162.7     341.0     183.0     177.0     140.2     118.6      83.2
     1     3  1996    40    3     239.3    195.3    0.84    160.7     345.6     185.4     177.5     140.5     119.0      84.3
     2     3  1996    41    3     235.3    191.3    0.85    159.1     350.1     187.9     176.3     139.7     118.5      85.4
     3     3  1996    42    3     230.5    186.5    0.86    156.8     354.6     190.3     181.7     143.9     121.9      86.5
     4     3  1996    43    3     226.3    182.3    0.88    155.0     359.0     192.7     180.0     142.6     121.0      87.6
     5     3  1996    44    3     222.6    178.6    0.89    153.6     363.5     195.0     179.1     141.8     120.6      88.7
     6     3  1996    45    3     218.2    174.2    0.90    151.6     367.9     197.4     184.1     145.8     123.7      89.7
     7     3  1996    46    3     264.2    220.2    0.91    199.9     372.2     199.7     185.4     146.9     124.7      90.8
     8     3  1996    47    3     257.6    213.6    0.92    195.7     376.5     202.0     189.6     150.2     127.4      91.8
     9     3  1996    48    3     251.5    207.5    0.93    191.8     380.8     204.3     190.1     150.6     127.8      92.9
    10     3  1996    49    3     245.3    201.3    0.94    187.9     385.1     206.6     192.3     152.3     129.3      93.9
    11     3  1996    50    3     239.5    195.5    0.95    184.4     389.3     208.9     197.4     156.3     132.5      94.9
    12     3  1996    51    3     234.2    190.2    0.96    181.4     393.5     211.1     198.6     157.3     133.4      96.0
    13     3  1996    52    3     228.6    184.6    0.97    178.0     397.7     213.4     202.5     160.4     135.9      97.0
    14     3  1996    53    3     223.1    179.1    0.98    174.7     401.8     215.6     203.2     161.0     136.5      98.0
    15     3  1996    54    3     217.6    173.6    0.99    171.4     405.9     217.8     205.8     163.0     138.2      99.0
    16     3  1996    55    3     261.7    217.7    1.00    217.7     410.0     220.0     217.3     172.1     145.3     100.0
    17     3  1996    56    3     253.8    209.8    1.00    209.8     410.0     220.0     211.9     167.8     142.0     100.0
    18     3  1996    57    3     244.9    200.9    1.00    200.9     410.0     220.0     215.9     171.0     144.5     100.0
    19     3  1996    58    3     238.8    194.8    1.00    194.8     410.0     220.0     204.2     161.8     137.4     100.0
    20     3  1996    59    3     234.0    190.0    1.00    190.0     410.0     220.0     199.3     157.9     134.4     100.0
    21     3  1996    60    3     227.8    183.8    1.00    183.8     410.0     220.0     209.2     165.7     140.4     100.0
    22     3  1996    61    3     221.1    177.1    1.00    177.1     410.0     220.0     212.8     168.5     142.5     100.0
    23     3  1996    62    3     264.7    220.7    1.00    220.7     410.0     220.0     210.1     166.4     140.9     100.0
    24     3  1996    63    3     257.6    213.6    1.00    213.6     410.0     220.0     208.3     165.0     139.8     100.0
    25     3  1996    64    3     251.8    207.8    1.00    207.8     410.0     220.0     203.3     161.1     136.8     100.0
    26     3  1996    65    3     244.4    200.4    1.00    200.4     410.0     220.0     209.6     166.0     140.6     100.0
    27     3  1996    66    3     236.3    192.3    1.00    192.3     410.0     220.0     212.8     168.5     142.5     100.0
    28     3  1996    67    3     228.3    184.3    1.00    184.3     410.0     220.0     212.8     168.5     142.5     100.0
    29     3  1996    68    3     221.8    177.8    1.00    177.8     410.0     220.0     211.0     167.1     141.5     100.0
    30     3  1996    69    3     264.0    220.0    1.00    220.0     410.0     220.0     211.0     167.1     141.5     100.0
    31     3  1996    70    3     256.5    212.5    1.00    212.5     410.0     220.0     210.1     166.4     140.9     100.0
     1     4  1996    71    3     249.3    205.3    1.00    205.3     410.0     220.0     209.2     165.7     140.4     100.0
     2     4  1996    72    3     242.1    198.1    1.00    198.1     410.0     220.0     208.7     165.3     140.1     100.0
     3     4  1996    73    3     235.0    191.0    1.00    191.0     410.0     220.0     208.7     165.3     140.1     100.0
     4     4  1996    74    3     226.4    182.4    1.00    182.4     410.0     220.0     215.0     170.3     143.9     100.0
     5     4  1996    75    3     264.4    220.4    1.00    220.4     410.0     220.0     213.2     168.9     142.8     100.0
     6     4  1996    76    3     255.3    211.3    1.00    211.3     410.0     220.0     217.3     172.1     145.3     100.0
     7     4  1996    77    4     249.1    205.1    1.00    205.1     410.0     220.0     204.7     162.1     137.6     100.0
     8     4  1996    78    4     241.4    197.4    1.00    197.4     410.0     220.0     211.4     167.5     141.7     100.0
     9     4  1996    79    4     234.9    190.9    1.00    190.9     410.0     220.0     206.5     163.6     138.7     100.0
    10     4  1996    80    4     243.3    199.3    1.00    199.3     410.0     220.0     208.3     165.0     139.8     100.0
    11     4  1996    81    4     237.7    193.7    1.00    193.7     410.0     220.0     205.6     162.8     138.2     100.0
    12     4  1996    82    4     234.9    190.9    1.00    190.9     410.0     220.0     208.7     165.3     140.1     100.0
    13     4  1996    83    4     228.5    184.5    1.00    184.5     410.0     220.0     206.0     163.2     138.5     100.0
    14     4  1996    84    4     239.6    195.6    1.00    195.6     410.0     220.0     209.6     166.0     140.6     100.0
    15     4  1996    85    4     236.2    192.2    1.00    192.2     410.0     220.0     195.3     154.7     131.9     100.0
    16     4  1996    86    4     229.8    185.8    1.00    185.8     410.0     220.0     208.3     165.0     139.8     100.0
    17     4  1996    87    4     224.0    180.0    1.00    180.0     410.0     220.0     207.4     164.3     139.3     100.0
    18     4  1996    88    4     217.3    173.3    1.00    173.3     410.0     220.0     211.9     167.8     142.0     100.0
    19     4  1996    89    4     264.7    220.7    1.00    220.7     410.0     220.0     209.2     165.7     140.4     100.0
    20     4  1996    90    4     257.7    213.7    1.00    213.7     410.0     220.0     208.3     165.0     139.8     100.0
    21     4  1996    91    4     251.4    207.4    1.00    207.4     410.0     220.0     212.8     168.5     142.5     100.0
    22     4  1996    92    4     245.6    201.6    1.00    201.6     410.0     220.0     205.1     162.5     137.9     100.0
    23     4  1996    93    4     238.6    194.6    1.00    194.6     410.0     220.0     213.7     169.2     143.1     100.0
    24     4  1996    94    4     233.4    189.4    1.00    189.4     410.0     220.0     205.1     162.5     137.9     100.0
    25     4  1996    95    4     227.1    183.1    1.00    183.1     410.0     220.0     211.0     167.1     141.5     100.0
    26     4  1996    96    4     220.1    176.1    1.00    176.1     410.0     220.0     215.0     170.3     143.9     100.0
    27     4  1996    97    4     263.5    219.5    1.00    219.5     410.0     220.0     217.3     172.1     145.3     100.0
    28     4  1996    98    4     255.7    211.7    1.00    211.7     410.0     220.0     213.7     169.2     143.1     100.0
    29     4  1996    99    4     246.9    202.9    1.00    202.9     410.0     220.0     218.2     172.8     145.8     100.0
    30     4  1996   100    4     237.9    193.9    1.00    193.9     410.0     220.0     219.1     173.5     146.4     100.0
     1     5  1996   101    4     228.0    184.0    1.00    184.0     410.0     220.0     220.0     180.6     151.8     100.0
     2     5  1996   102    4     266.3    222.3    1.00    222.3     410.0     220.0     218.2     172.8     145.8     100.0
     3     5  1996   103    4     256.3    212.3    1.00    212.3     410.0     220.0     220.0     174.9     147.5     100.0
     4     5  1996   104    4     245.8    201.8    1.00    201.8     410.0     220.0     220.0     178.8     150.5     100.0
     5     5  1996   105    4     237.7    193.7    1.00    193.7     410.0     220.0     218.2     172.8     145.8     100.0
     6     5  1996   106    4     231.2    187.2    1.00    187.2     410.0     220.0     218.6     173.1     146.1     100.0
     7     5  1996   107    4     224.2    180.2    1.00    180.2     410.0     220.0     220.0     176.3     148.5     100.0
     8     5  1996   108    4     263.8    219.8    1.00    219.8     410.0     220.0     220.0     177.8     149.6     100.0
     9     5  1996   109    4     254.5    210.5    1.00    210.5     410.0     220.0     220.0     178.8     150.5     100.0
    10     5  1996   110    4     245.6    201.6    1.00    201.6     410.0     220.0     220.0     178.1     149.9     100.0

Legend

DAP          : Days after planting
Stage        : 0: before/after planting
Stage        : 1: emergence or transplant recovery
Stage        : 2: vegetative stage
Stage        : 3: flowering
Stage        : 4: yield formation and ripening
WCTot        : Water content in total soil profile (layer: 0.00 - 1.20 m)
Wr(Zx)       : Water content in maximum effective root zone (Zx = 1.00 m)
Z            : Effective rooting depth
Wr           : Water content in effective root zone
Wr(Sat)      : Water content in effective root zone if saturated
Wr(FC)       : Water content in effective root zone at field capacity
Wr(exp)      : Water content in effective root zone at upper threshold for leaf expansion
Wr(sto)      : Water content in effective root zone at upper threshold for stomatal closure
Wr(sen)      : Water content in effective root zone at upper threshold for early canopy senescence
Wr(PWP)      : Water content in effective root zone at permanent wilting point
