AquaCrop 7.2 (August 2024) - Output created on (date) : 07-12-2024   at (time) : 20:43:05
Soil Water balance

** Run number:  1
   Day Month  Year   DAP Stage     WCTot    Rain     Irri   Surf   Infilt   RO    Drain       CR    Zgwt       Ex       E     E/Ex    Trx       Tr  Tr/Trx    ETx      ET   ET/ETx
                                      mm      mm       mm     mm     mm     mm       mm       mm      m        mm       mm     %       mm       mm    %        mm      mm      %
    22     1  1996     1    1      260.8     0.0      0.0    0.0    0.0    0.0      0.0      0.0   -9.90      4.2      3.2    76      0.0      0.0   100      4.2     3.2     76
    23     1  1996     2    1      258.7     0.0      0.0    0.0    0.0    0.0      0.0      0.0   -9.90      4.3      2.1    50      0.0      0.0   100      4.3     2.1     50
    24     1  1996     3    1      256.9     0.0      0.0    0.0    0.0    0.0      0.0      0.0   -9.90      4.8      1.8    36      0.0      0.0   100      4.8     1.8     36
    25     1  1996     4    1      255.6     0.0      0.0    0.0    0.0    0.0      0.0      0.0   -9.90      4.6      1.3    28      0.0      0.0   100      4.6     1.3     28
    26     1  1996     5    2      254.6     0.0      0.0    0.0    0.0    0.0      0.0      0.0   -9.90      4.2      1.0    23      0.1      0.1   100      4.3     1.0     24
    27     1  1996     6    2      253.6     0.0      0.0    0.0    0.0    0.0      0.0      0.0   -9.90      4.4      0.9    20      0.1      0.1   100      4.5     0.9     21
    28     1  1996     7    2      252.7     0.0      0.0    0.0    0.0    0.0      0.0      0.0   -9.90      5.2      0.9    17      0.1      0.1   100      5.3     1.0     18
    29     1  1996     8    2      251.9     0.0      0.0    0.0    0.0    0.0      0.0      0.0   -9.90      4.9      0.7    14      0.1      0.1   100      5.0     0.8     16
    30     1  1996     9    2      251.1     0.0      0.0    0.0    0.0    0.0      0.0      0.0   -9.90      5.1      0.6    13      0.1      0.1   100      5.2     0.7     14
    31     1  1996    10    2      250.5     0.0      0.0    0.0    0.0    0.0      0.0      0.0   -9.90      4.9      0.6    11      0.1      0.1   100      5.1     0.7     13
     1     2  1996    11    2      249.9     0.0      0.0    0.0    0.0    0.0      0.0      0.0   -9.90      4.4      0.4    10      0.1      0.1   100      4.5     0.6     12
     2     2  1996    12    2      249.3     0.0      0.0    0.0    0.0    0.0      0.0      0.0   -9.90      5.0      0.5     9      0.2      0.2   100      5.2     0.6     12
     3     2  1996    13    2      248.8     0.0      0.0    0.0    0.0    0.0      0.0      0.0   -9.90      4.5      0.4     8      0.2      0.2   100      4.6     0.5     11
     4     2  1996    14    2      248.2     0.0      0.0    0.0    0.0    0.0      0.0      0.0   -9.90      4.9      0.4     8      0.2      0.2   100      5.1     0.6     11
     5     2  1996    15    2      247.6     0.0      0.0    0.0    0.0    0.0      0.0      0.0   -9.90      4.8      0.4     7      0.2      0.2   100      5.1     0.6     11
     6     2  1996    16    2      247.1     0.0      0.0    0.0    0.0    0.0      0.0      0.0   -9.90      4.6      0.3     7      0.2      0.2   100      4.8     0.5     11
     7     2  1996    17    2      246.5     0.0      0.0    0.0    0.0    0.0      0.0      0.0   -9.90      4.8      0.3     7      0.3      0.3   100      5.1     0.6     12
     8     2  1996    18    2      245.9     0.0      0.0    0.0    0.0    0.0      0.0      0.0   -9.90      5.1      0.3     6      0.3      0.3   100      5.4     0.6     12
     9     2  1996    19    2      245.1     0.0      0.0    0.0    0.0    0.0      0.0      0.0   -9.90      6.1      0.4     6      0.4      0.4   100      6.5     0.8     12
    10     2  1996    20    2      244.3     0.0      0.0    0.0    0.0    0.0      0.0      0.0   -9.90      6.0      0.3     6      0.5      0.5   100      6.5     0.8     13
    11     2  1996    21    2      243.6     0.0      0.0    0.0    0.0    0.0      0.0      0.0   -9.90      4.5      0.2     5      0.4      0.4   100      5.0     0.6     13
    12     2  1996    22    2      243.0     0.0      0.0    0.0    0.0    0.0      0.0      0.0   -9.90      3.8      0.2     5      0.4      0.4   100      4.2     0.6     14
    13     2  1996    23    2      242.4     0.0      0.0    0.0    0.0    0.0      0.0      0.0   -9.90      3.8      0.2     5      0.4      0.4   100      4.2     0.6     15
    14     2  1996    24    2      241.7     0.0      0.0    0.0    0.0    0.0      0.0      0.0   -9.90      3.8      0.2     5      0.5      0.5   100      4.3     0.7     16
    15     2  1996    25    2      240.9     0.0      0.0    0.0    0.0    0.0      0.0      0.0   -9.90      4.3      0.2     4      0.6      0.6   100      5.0     0.8     17
    16     2  1996    26    2      240.0     0.0      0.0    0.0    0.0    0.0      0.0      0.0   -9.90      4.4      0.2     4      0.7      0.7   100      5.2     0.9     18
    17     2  1996    27    2      239.0     0.0      0.0    0.0    0.0    0.0      0.0      0.0   -9.90      4.5      0.2     4      0.8      0.8   100      5.4     1.0     19
    18     2  1996    28    2      237.9     0.0      0.0    0.0    0.0    0.0      0.0      0.0   -9.90      4.4      0.2     3      0.9      0.9   100      5.4     1.1     20
    19     2  1996    29    2      236.6     0.0      0.0    0.0    0.0    0.0      0.0      0.0   -9.90      4.6      0.1     3      1.1      1.1   100      5.7     1.3     22
    20     2  1996    30    2      235.3     0.0      0.0    0.0    0.0    0.0      0.0      0.0   -9.90      4.5      0.1     3      1.2      1.2   100      5.7     1.3     24
    21     2  1996    31    2      233.8     0.0      0.0    0.0    0.0    0.0      0.0      0.0   -9.90      4.6      0.1     3      1.4      1.4   100      6.1     1.5     25
    22     2  1996    32    2      232.1     0.0      0.0    0.0    0.0    0.0      0.0      0.0   -9.90      4.5      0.1     2      1.6      1.6   100      6.1     1.7     27
    23     2  1996    33    2      230.4     0.0      0.0    0.0    0.0    0.0      0.0      0.0   -9.90      4.1      0.1     2      1.6      1.6   100      5.7     1.7     30
    24     2  1996    34    2      228.3     0.0      0.0    0.0    0.0    0.0      0.0      0.0   -9.90      4.7      0.1     2      2.0      2.0   100      6.7     2.1     32
    25     2  1996    35    3      264.0     0.0     42.4    0.0   42.4    0.0      0.0      0.0   -9.90      4.4      4.4   100      2.3      2.3   100      6.7     6.7    100
    26     2  1996    36    3      256.7     0.0      0.0    0.0    0.0    0.0      0.0      0.0   -9.90      4.7      4.4    94      2.9      2.9   100      7.6     7.3     96
    27     2  1996    37    3      252.2     0.0      0.0    0.0    0.0    0.0      0.0      0.0   -9.90      4.1      1.5    38      2.9      2.9   100      7.0     4.5     64
    28     2  1996    38    3      248.3     0.0      0.0    0.0    0.0    0.0      0.0      0.0   -9.90      3.8      0.7    18      3.3      3.3   100      7.0     3.9     56
    29     2  1996    39    3      243.7     0.0      0.0    0.0    0.0    0.0      0.0      0.0   -9.90      4.0      0.5    12      4.1      4.1   100      8.1     4.6     56
     1     3  1996    40    3      239.3     0.0      0.0    0.0    0.0    0.0      0.0      0.0   -9.90      3.4      0.2     7      4.2      4.2   100      7.6     4.4     58
     2     3  1996    41    3      235.3     0.0      0.0    0.0    0.0    0.0      0.0      0.0   -9.90      2.7      0.1     4      3.9      3.9   100      6.6     4.0     61
     3     3  1996    42    3      230.5     0.0      0.0    0.0    0.0    0.0      0.0      0.0   -9.90      2.8      0.1     4      4.6      4.6   100      7.5     4.7     63
     4     3  1996    43    3      226.3     0.0      0.0    0.0    0.0    0.0      0.0      0.0   -9.90      2.3      0.1     3      4.1      4.1   100      6.4     4.2     66
     5     3  1996    44    3      222.6     0.0      0.0    0.0    0.0    0.0      0.0      0.0   -9.90      1.8      0.1     3      3.7      3.7   100      5.5     3.7     68
     6     3  1996    45    3      218.2     0.0      0.0    0.0    0.0    0.0      0.0      0.0   -9.90      2.0      0.1     3      4.3      4.3   100      6.3     4.4     69
     7     3  1996    46    3      264.2     0.0     52.0    0.0   52.0    0.0      0.0      0.0   -9.90      1.8      1.8   100      4.3      4.3   100      6.1     6.1    100
     8     3  1996    47    3      257.6     0.0      0.0    0.0    0.0    0.0      0.0      0.0   -9.90      1.8      1.8   100      4.8      4.8   100      6.6     6.6    100
     9     3  1996    48    3      251.5     0.0      0.0    0.0    0.0    0.0      0.0      0.0   -9.90      1.6      1.6   100      4.6      4.6   100      6.2     6.2    100
    10     3  1996    49    3      245.3     0.0      0.0    0.0    0.0    0.0      0.0      0.0   -9.90      1.5      1.5   100      4.6      4.6   100      6.2     6.2    100
    11     3  1996    50    3      239.5     0.0      0.0    0.0    0.0    0.0      0.0      0.0   -9.90      1.6      0.4    27      5.3      5.3   100      6.9     5.8     83
    12     3  1996    51    3      234.2     0.0      0.0    0.0    0.0    0.0      0.0      0.0   -9.90      1.5      0.1     6      5.2      5.2   100      6.7     5.3     79
    13     3  1996    52    3      228.6     0.0      0.0    0.0    0.0    0.0      0.0      0.0   -9.90      1.5      0.1     3      5.6      5.6   100      7.2     5.7     79
    14     3  1996    53    3      223.1     0.0      0.0    0.0    0.0    0.0      0.0      0.0   -9.90      1.4      0.0     3      5.4      5.4   100      6.8     5.4     80
    15     3  1996    54    3      217.6     0.0      0.0    0.0    0.0    0.0      0.0      0.0   -9.90      1.4      0.0     3      5.5      5.5   100      6.9     5.6     80
    16     3  1996    55    3      261.7     0.0     53.4    0.0   53.4    0.0      0.0      0.0   -9.90      1.8      1.8   100      7.4      7.4   100      9.2     9.2    100
    17     3  1996    56    3      253.8     0.0      0.0    0.0    0.0    0.0      0.0      0.0   -9.90      1.5      1.5   100      6.4      6.4   100      7.9     7.9    100
    18     3  1996    57    3      244.9     0.0      0.0    0.0    0.0    0.0      0.0      0.0   -9.90      1.7      1.7   100      7.3      7.3   100      8.9     8.9    100
    19     3  1996    58    3      238.8     0.0      0.0    0.0    0.0    0.0      0.0      0.0   -9.90      1.1      1.1   100      5.0      5.0   100      6.1     6.1    100
    20     3  1996    59    3      234.0     0.0      0.0    0.0    0.0    0.0      0.0      0.0   -9.90      0.9      0.9   100      4.0      4.0   100      4.8     4.8    100
    21     3  1996    60    3      227.8     0.0      0.0    0.0    0.0    0.0      0.0      0.0   -9.90      1.3      0.1    10      6.0      6.0   100      7.3     6.1     84
    22     3  1996    61    3      221.1     0.0      0.0    0.0    0.0    0.0      0.0      0.0   -9.90      1.4      0.1     4      6.7      6.7   100      8.1     6.8     83
    23     3  1996    62    3      264.7     0.0     51.1    0.0   51.1    0.0      0.0      0.0   -9.90      1.3      1.3   100      6.2      6.2   100      7.5     7.5    100
    24     3  1996    63    3      257.6     0.0      0.0    0.0    0.0    0.0      0.0      0.0   -9.90      1.2      1.2   100      5.9      5.9   100      7.0     7.0    100
    25     3  1996    64    3      251.8     0.0      0.0    0.0    0.0    0.0      0.0      0.0   -9.90      1.0      1.0   100      4.9      4.9   100      5.8     5.8    100
    26     3  1996    65    3      244.4     0.0      0.0    0.0    0.0    0.0      0.0      0.0   -9.90      1.2      1.2   100      6.2      6.2   100      7.4     7.4    100
    27     3  1996    66    3      236.3     0.0      0.0    0.0    0.0    0.0      0.0      0.0   -9.90      1.3      1.3   100      6.8      6.8   100      8.1     8.1    100
    28     3  1996    67    3      228.3     0.0      0.0    0.0    0.0    0.0      0.0      0.0   -9.90      1.3      1.1    88      6.8      6.8   100      8.1     8.0     98
    29     3  1996    68    3      221.8     0.0      0.0    0.0    0.0    0.0      0.0      0.0   -9.90      1.2      0.0     3      6.5      6.5   100      7.7     6.5     85
    30     3  1996    69    3      264.0     0.0     49.9    0.0   49.9    0.0      0.0      0.0   -9.90      1.2      1.2   100      6.5      6.5   100      7.7     7.7    100
    31     3  1996    70    3      256.5     0.0      0.0    0.0    0.0    0.0      0.0      0.0   -9.90      1.1      1.1   100      6.3      6.3   100      7.5     7.5    100
     1     4  1996    71    3      249.3     0.0      0.0    0.0    0.0    0.0      0.0      0.0   -9.90      1.1      1.1   100      6.2      6.2   100      7.2     7.2    100
     2     4  1996    72    3      242.1     0.0      0.0    0.0    0.0    0.0      0.0      0.0   -9.90      1.1      1.1   100      6.1      6.1   100      7.1     7.1    100
     3     4  1996    73    3      235.0     0.0      0.0    0.0    0.0    0.0      0.0      0.0   -9.90      1.1      1.1   100      6.1      6.1   100      7.1     7.1    100
     4     4  1996    74    3      226.4     0.0      0.0    0.0    0.0    0.0      0.0      0.0   -9.90      1.3      1.3   100      7.4      7.4   100      8.7     8.7    100
     5     4  1996    75    3      264.4     0.0     46.3    0.0   46.3    0.0      0.0      0.0   -9.90      1.2      1.2   100      7.0      7.0   100      8.2     8.2    100
     6     4  1996    76    3      255.3     0.0      0.0    0.0    0.0    0.0      0.0      0.0   -9.90      1.4      1.4   100      7.8      7.8   100      9.2     9.2    100
     7     4  1996    77    4      249.1     0.0      0.0    0.0    0.0    0.0      0.0      0.0   -9.90      0.9      0.9   100      5.2      5.2   100      6.1     6.1    100
     8     4  1996    78    4      241.4     0.0      0.0    0.0    0.0    0.0      0.0      0.0   -9.90      1.2      1.2   100      6.6      6.6   100      7.7     7.7    100
     9     4  1996    79    4      234.9     0.0      0.0    0.0    0.0    0.0      0.0      0.0   -9.90      1.0      1.0   100      5.6      5.6   100      6.5     6.5    100
    10     4  1996    80    4      243.3    15.4      0.0    0.0   15.4    0.0      0.0      0.0   -9.90      1.0      1.0   100      5.9      5.9   100      7.0     7.0    100
    11     4  1996    81    4      237.7     0.3      0.0    0.0    0.3    0.0      0.0      0.0   -9.90      0.9      0.6    59      5.4      5.4   100      6.3     5.9     94
    12     4  1996    82    4      234.9     4.3      0.0    0.0    4.3    0.0      0.0      0.0   -9.90      1.1      1.1   100      6.0      6.0   100      7.1     7.1    100
    13     4  1996    83    4      228.5     0.0      0.0    0.0    0.0    0.0      0.0      0.0   -9.90      1.0      1.0   100      5.5      5.5   100      6.4     6.4    100
    14     4  1996    84    4      239.6    18.4      0.0    0.0   18.4    0.0      0.0      0.0   -9.90      1.1      1.1   100      6.2      6.2   100      7.3     7.3    100
    15     4  1996    85    4      236.2     0.4      0.0    0.0    0.4    0.0      0.0      0.0   -9.90      0.6      0.6   100      3.2      3.2   100      3.8     3.8    100
    16     4  1996    86    4      229.8     0.0      0.0    0.0    0.0    0.0      0.0      0.0   -9.90      1.0      0.5    46      5.9      5.9   100      6.9     6.4     92
    17     4  1996    87    4      224.0     0.0      0.0    0.0    0.0    0.0      0.0      0.0   -9.90      1.0      0.1    13      5.7      5.7   100      6.7     5.8     87
    18     4  1996    88    4      217.3     0.0      0.0    0.0    0.0    0.0      0.0      0.0   -9.90      1.2      0.1     5      6.6      6.6   100      7.8     6.7     86
    19     4  1996    89    4      264.7     0.0     54.5    0.0   54.5    0.0      0.0      0.0   -9.90      1.1      1.1   100      6.1      6.1   100      7.1     7.1    100
    20     4  1996    90    4      257.7     0.0      0.0    0.0    0.0    0.0      0.0      0.0   -9.90      1.0      1.0   100      5.9      5.9   100      6.9     6.9    100
    21     4  1996    91    4      251.4     1.6      0.0    0.0    1.6    0.0      0.0      0.0   -9.90      1.2      1.2   100      6.8      6.8   100      8.0     8.0    100
    22     4  1996    92    4      245.6     0.0      0.0    0.0    0.0    0.0      0.0      0.0   -9.90      0.9      0.6    62      5.2      5.2   100      6.1     5.8     94
    23     4  1996    93    4      238.6     0.0      0.0    0.0    0.0    0.0      0.0      0.0   -9.90      1.3      0.2    14      6.9      6.9   100      8.1     7.0     87
    24     4  1996    94    4      233.4     0.0      0.0    0.0    0.0    0.0      0.0      0.0   -9.90      1.0      0.1     7      5.1      5.1   100      6.1     5.2     85
    25     4  1996    95    4      227.1     0.0      0.0    0.0    0.0    0.0      0.0      0.0   -9.90      1.2      0.0     4      6.2      6.2   100      7.4     6.3     85
    26     4  1996    96    4      220.1     0.0      0.0    0.0    0.0    0.0      0.0      0.0   -9.90      1.4      0.1     4      6.9      6.9   100      8.3     7.0     84
    27     4  1996    97    4      263.5     0.0     52.1    0.0   52.1    0.0      0.0      0.0   -9.90      1.5      1.5   100      7.3      7.3   100      8.7     8.7    100
    28     4  1996    98    4      255.7     0.0      0.0    0.0    0.0    0.0      0.0      0.0   -9.90      1.3      1.3   100      6.5      6.5   100      7.9     7.9    100
    29     4  1996    99    4      246.9     0.0      0.0    0.0    0.0    0.0      0.0      0.0   -9.90      1.6      1.6   100      7.3      7.3   100      8.8     8.8    100
    30     4  1996   100    4      237.9     0.0      0.0    0.0    0.0    0.0      0.0      0.0   -9.90      1.6      1.6   100      7.3      7.3   100      8.9     8.9    100
     1     5  1996   101    4      228.0     0.0      0.0    0.0    0.0    0.0      0.0      0.0   -9.90      2.0      1.1    54      8.9      8.9   100     10.9     9.9     91
     2     5  1996   102    4      266.3     0.0     46.9    0.0   46.9    0.0      0.0      0.0   -9.90      1.6      1.6   100      6.9      6.9   100      8.6     8.6    100
     3     5  1996   103    4      256.3     0.0      0.0    0.0    0.0    0.0      0.9      0.0   -9.90      1.8      1.8   100      7.3      7.3   100      9.1     9.1    100
     4     5  1996   104    4      245.8     0.0      0.0    0.0    0.0    0.0      0.4      0.0   -9.90      2.1      2.1   100      8.0      8.0   100     10.0    10.0    100
     5     5  1996   105    4      237.7     0.0      0.0    0.0    0.0    0.0      0.1      0.0   -9.90      1.8      1.5    88      6.5      6.5   100      8.3     8.1     97
     6     5  1996   106    4      231.2     0.0      0.0    0.0    0.0    0.0      0.0      0.0   -9.90      1.8      0.1     6      6.4      6.4   100      8.2     6.5     79
     7     5  1996   107    4      224.2     0.0      0.0    0.0    0.0    0.0      0.0      0.0   -9.90      2.0      0.1     4      6.9      6.9   100      9.0     7.0     78
     8     5  1996   108    4      263.8     0.0     48.8    0.0   48.8    0.0      0.0      0.0   -9.90      2.2      2.2   100      7.0      7.0   100      9.2     9.2    100
     9     5  1996   109    4      254.5     0.0      0.0    0.0    0.0    0.0      0.0      0.0   -9.90      2.3      2.3   100      7.0      7.0   100      9.3     9.3    100
    10     5  1996   110    4      245.6     0.0      0.0    0.0    0.0    0.0      0.0      0.0   -9.90      2.3      2.3   100      6.6      6.6   100      8.9     8.9    100

Legend

DAP          : Days after planting
Stage        : 0: before/after planting
Stage        : 1: emergence or transplant recovery
Stage        : 2: vegetative stage
Stage        : 3: flowering
Stage        : 4: yield formation and ripening
WCTot        : Water content in total soil profile
Rain         : Rainfall
Irri         : Water applied by irrigation
Surf         : Stored water on soil surface between bunds
Infilt       : Infiltrated water in soil profile
RO           : Surface runoff
Drain        : Water drained out of the soil profile
CR           : Water moved upward by capillary rise
Zgwt         : Depth of the groundwater table (-9.90 if absent)
Ex           : Maximum soil evaporation
E            : Soil evaporation
E/Ex         : Relative soil evaporation (100 E/Ex)
Trx          : Maximum crop transpiration
Tr           : Total transpiration of crop and weeds
Tr/Trx       : Relative transpiration (100 Tr/Trx)
ETx          : Evapotranspiration maximale
ET           : Evapotranspiration
ET/ETx       : Evapotranspiration relative (100 ET/ETx)
