AquaCrop 7.2 (August 2024) - Output created on (date) : 04-12-2024   at (time) : 03:56:19 PM
Evaluation of simulation results - Statistics

  No field observation file
